3g2n_ligand
 OpenBabel07182516373D
Created by X-TOOL on Fri Sep 26 17:34:47 2014
 37 38  0  0  0  0  0  0  0  0999 V2000
   37.1580   23.4870   30.4910 C   0  0  0  0  0  0  0  0  0  0  0  0
   38.3350   23.8670   31.1330 C   0  0  0  0  0  0  0  0  0  0  0  0
   38.4750   25.1600   31.6300 C   0  0  0  0  0  0  0  0  0  0  0  0
   37.4290   26.0740   31.4840 C   0  0  0  0  0  0  0  0  0  0  0  0
   36.2470   25.6910   30.8390 C   0  0  0  0  0  0  0  0  0  0  0  0
   36.1140   24.3940   30.3420 C   0  0  0  0  0  0  0  0  0  0  0  0
   34.8170   23.9710   29.6420 C   0  0  0  0  0  0  0  0  0  0  0  0
   33.7260   24.2890   30.1100 O   0  0  0  0  0  0  0  0  0  0  0  0
   34.9690   23.2500   28.5340 N   0  0  0  0  0  0  0  0  0  0  0  0
   33.7690   22.7880   27.7880 C   0  0  2  0  0  0  0  0  0  0  0  0
   33.5440   21.3610   28.0580 O   0  0  0  0  0  0  0  0  0  0  0  0
   32.3720   20.8560   27.4120 C   0  0  2  0  0  0  0  0  0  0  0  0
   32.2320   19.3880   27.8560 C   0  0  0  0  0  0  0  0  0  0  0  0
   33.3160   18.6190   27.3300 O   0  0  0  0  0  0  0  0  0  0  0  0
   32.5250   21.0280   25.8800 C   0  0  1  0  0  0  0  0  0  0  0  0
   31.3420   20.5750   25.2380 O   0  0  0  0  0  0  0  0  0  0  0  0
   32.7830   22.4940   25.4940 C   0  0  2  0  0  0  0  0  0  0  0  0
   33.0530   22.5840   24.0950 O   0  0  0  0  0  0  0  0  0  0  0  0
   33.9700   23.0640   26.2880 C   0  0  1  0  0  0  0  0  0  0  0  0
   34.1230   24.4740   26.0520 O   0  0  0  0  0  0  0  0  0  0  0  0
   37.0604   22.5274   30.1241 H   0  0  0  0  0  0  0  0  0  0  0  0
   39.1049   23.1882   31.2403 H   0  0  0  0  0  0  0  0  0  0  0  0
   39.3474   25.4417   32.1040 H   0  0  0  0  0  0  0  0  0  0  0  0
   37.5276   27.0331   31.8521 H   0  0  0  0  0  0  0  0  0  0  0  0
   35.4749   26.3672   30.7312 H   0  0  0  0  0  0  0  0  0  0  0  0
   35.8708   23.0239   28.2102 H   0  0  0  0  0  0  0  0  0  0  0  0
   32.8987   23.3212   28.1091 H   0  0  0  0  0  0  0  0  0  0  0  0
   31.4804   21.3832   27.6803 H   0  0  0  0  0  0  0  0  0  0  0  0
   31.3065   18.9932   27.4919 H   0  0  0  0  0  0  0  0  0  0  0  0
   32.2488   19.3384   28.9247 H   0  0  0  0  0  0  0  0  0  0  0  0
   33.3030   18.6624   26.3611 H   0  0  0  0  0  0  0  0  0  0  0  0
   33.3685   20.4502   25.5644 H   0  0  0  0  0  0  0  0  0  0  0  0
   30.5884   21.1087   25.5349 H   0  0  0  0  0  0  0  0  0  0  0  0
   31.9096   23.0661   25.7280 H   0  0  0  0  0  0  0  0  0  0  0  0
   33.8450   22.0650   23.8845 H   0  0  0  0  0  0  0  0  0  0  0  0
   34.8650   22.5800   25.9569 H   0  0  0  0  0  0  0  0  0  0  0  0
   33.3235   24.9393   26.3438 H   0  0  0  0  0  0  0  0  0  0  0  0
  1  2  2  0  0  0  0
  1  6  1  0  0  0  0
  1 21  1  0  0  0  0
  2  3  1  0  0  0  0
  2 22  1  0  0  0  0
  3  4  2  0  0  0  0
  3 23  1  0  0  0  0
  4  5  1  0  0  0  0
  4 24  1  0  0  0  0
  5  6  2  0  0  0  0
  5 25  1  0  0  0  0
  6  7  1  0  0  0  0
  7  8  2  0  0  0  0
  7  9  1  0  0  0  0
  9 10  1  0  0  0  0
  9 26  1  0  0  0  0
 10 11  1  0  0  0  0
 10 19  1  0  0  0  0
 10 27  1  1  0  0  0
 11 12  1  0  0  0  0
 12 13  1  0  0  0  0
 12 15  1  0  0  0  0
 12 28  1  1  0  0  0
 13 14  1  0  0  0  0
 13 29  1  0  0  0  0
 13 30  1  0  0  0  0
 14 31  1  0  0  0  0
 15 16  1  0  0  0  0
 15 17  1  0  0  0  0
 15 32  1  6  0  0  0
 16 33  1  0  0  0  0
 17 18  1  0  0  0  0
 17 19  1  0  0  0  0
 17 34  1  1  0  0  0
 18 35  1  0  0  0  0
 19 20  1  0  0  0  0
 19 36  1  6  0  0  0
 20 37  1  0  0  0  0
M  END
>  <MOLECULAR_FORMULA>
C13H17NO6

>  <MOLECULAR_WEIGHT>
283.1

>  <NUM_HB_ATOMS>
7

>  <NUM_ROTOR>
2

>  <XLOGP2>
-0.68

$$$$
