
     RDKit          3D

 37 38  0  0  0  0  0  0  0  0999 V2000
   37.0788   23.4926   30.4738 C   0  0  0  0  0  0  0  0  0  0  0  0
   38.2516   23.8630   31.1289 C   0  0  0  0  0  0  0  0  0  0  0  0
   38.3901   25.1499   31.6419 C   0  0  0  0  0  0  0  0  0  0  0  0
   37.3468   26.0674   31.4988 C   0  0  0  0  0  0  0  0  0  0  0  0
   36.1690   25.6940   30.8406 C   0  0  0  0  0  0  0  0  0  0  0  0
   36.0375   24.4031   30.3276 C   0  0  0  0  0  0  0  0  0  0  0  0
   34.7450   23.9907   29.6130 C   0  0  0  0  0  0  0  0  0  0  0  0
   33.6526   24.3444   30.0512 O   0  0  0  0  0  0  0  0  0  0  0  0
   34.9021   23.2381   28.5269 N   0  0  0  0  0  0  0  0  0  0  0  0
   33.7066   22.7833   27.7694 C   0  0  2  0  0  0  0  0  0  0  0  0
   33.4691   21.3583   28.0389 O   0  0  0  0  0  0  0  0  0  0  0  0
   32.3002   20.8605   27.3817 C   0  0  2  0  0  0  0  0  0  0  0  0
   32.1456   19.3941   27.8262 C   0  0  0  0  0  0  0  0  0  0  0  0
   33.3745   18.6943   27.6180 O   0  0  0  0  0  0  0  0  0  0  0  0
   32.4700   21.0293   25.8511 C   0  0  1  0  0  0  0  0  0  0  0  0
   31.2905   20.5835   25.1977 O   0  0  0  0  0  0  0  0  0  0  0  0
   32.7420   22.4929   25.4658 C   0  0  2  0  0  0  0  0  0  0  0  0
   33.0269   22.5791   24.0695 O   0  0  0  0  0  0  0  0  0  0  0  0
   33.9248   23.0559   26.2711 C   0  0  1  0  0  0  0  0  0  0  0  0
   34.0899   24.4645   26.0348 O   0  0  0  0  0  0  0  0  0  0  0  0
   36.9759   22.4745   30.0700 H   0  0  0  0  0  0  0  0  0  0  0  0
   39.0701   23.1367   31.2410 H   0  0  0  0  0  0  0  0  0  0  0  0
   39.3167   25.4426   32.1575 H   0  0  0  0  0  0  0  0  0  0  0  0
   37.4508   27.0848   31.9038 H   0  0  0  0  0  0  0  0  0  0  0  0
   35.3481   26.4176   30.7280 H   0  0  0  0  0  0  0  0  0  0  0  0
   35.8464   22.9723   28.2130 H   0  0  0  0  0  0  0  0  0  0  0  0
   32.8124   23.3381   28.0896 H   0  0  0  0  0  0  0  0  0  0  0  0
   31.3846   21.4091   27.6475 H   0  0  0  0  0  0  0  0  0  0  0  0
   31.8829   19.3616   28.8939 H   0  0  0  0  0  0  0  0  0  0  0  0
   31.3504   18.9166   27.2349 H   0  0  0  0  0  0  0  0  0  0  0  0
   33.7763   18.4655   28.4934 H   0  0  0  0  0  0  0  0  0  0  0  0
   33.3363   20.4289   25.5363 H   0  0  0  0  0  0  0  0  0  0  0  0
   30.6147   20.3281   25.8746 H   0  0  0  0  0  0  0  0  0  0  0  0
   31.8458   23.0875   25.6964 H   0  0  0  0  0  0  0  0  0  0  0  0
   33.9665   22.8635   23.9413 H   0  0  0  0  0  0  0  0  0  0  0  0
   34.8448   22.5515   25.9408 H   0  0  0  0  0  0  0  0  0  0  0  0
   34.1456   24.9401   26.9013 H   0  0  0  0  0  0  0  0  0  0  0  0
  1  2  2  0
  1  6  1  0
  2  3  1  0
  3  4  2  0
  4  5  1  0
  5  6  2  0
  6  7  1  0
  7  8  2  0
  7  9  1  0
 10  9  1  0
 10 11  1  0
 10 19  1  0
 11 12  1  0
 12 13  1  0
 12 15  1  0
 13 14  1  0
 15 16  1  0
 15 17  1  0
 17 18  1  0
 17 19  1  0
 19 20  1  0
  1 21  1  0
  2 22  1  0
  3 23  1  0
  4 24  1  0
  5 25  1  0
  9 26  1  0
 10 27  1  1
 12 28  1  1
 13 29  1  0
 13 30  1  0
 14 31  1  0
 15 32  1  6
 16 33  1  0
 17 34  1  6
 18 35  1  0
 19 36  1  6
 20 37  1  0
M  END
>  <filename_input>  (1) 
3g2n_docked.sdf

>  <pdb_id>  (1) 
3g2n

>  <pose_rank>  (1) 
0

>  <num_atoms_heavy>  (1) 
20

>  <num_torsions>  (1) 
3

>  <pose>  (1) 
[33.70661604178148, 22.78334491660141, 27.769351173652947, 0.6880700444878636, 5.165593767416148, 3.4880292621883315, -0.03011308998951761, 0.04411050803921362, 0.2586967757905768]

>  <energy>  (1) 
-7236.501077457499

>  <inter_energy>  (1) 
-7729.180344942635

>  <intra_energy>  (1) 
0.0

>  <rmsd>  (1) 
0.0989888

>  <sdf_rank>  (1) 
0

$$$$

     RDKit          3D

 37 38  0  0  0  0  0  0  0  0999 V2000
   37.0701   23.4770   30.5845 C   0  0  0  0  0  0  0  0  0  0  0  0
   38.2425   23.8613   31.2324 C   0  0  0  0  0  0  0  0  0  0  0  0
   38.4074   25.1763   31.6591 C   0  0  0  0  0  0  0  0  0  0  0  0
   37.3909   26.1081   31.4368 C   0  0  0  0  0  0  0  0  0  0  0  0
   36.2135   25.7207   30.7860 C   0  0  0  0  0  0  0  0  0  0  0  0
   36.0555   24.4016   30.3596 C   0  0  0  0  0  0  0  0  0  0  0  0
   34.7634   23.9742   29.6534 C   0  0  0  0  0  0  0  0  0  0  0  0
   34.7384   22.9557   28.9661 O   0  0  0  0  0  0  0  0  0  0  0  0
   33.7162   24.7751   29.8338 N   0  0  0  0  0  0  0  0  0  0  0  0
   32.4200   24.4469   29.1842 C   0  0  2  0  0  0  0  0  0  0  0  0
   32.6266   24.2729   27.7395 O   0  0  0  0  0  0  0  0  0  0  0  0
   31.4279   23.9037   27.0519 C   0  0  2  0  0  0  0  0  0  0  0  0
   31.8245   23.6810   25.5806 C   0  0  0  0  0  0  0  0  0  0  0  0
   30.8568   22.8459   24.9408 O   0  0  0  0  0  0  0  0  0  0  0  0
   30.3695   25.0181   27.2464 C   0  0  1  0  0  0  0  0  0  0  0  0
   29.1610   24.6319   26.6084 O   0  0  0  0  0  0  0  0  0  0  0  0
   30.0941   25.2891   28.7349 C   0  0  2  0  0  0  0  0  0  0  0  0
   29.2206   26.4106   28.8673 O   0  0  0  0  0  0  0  0  0  0  0  0
   31.4058   25.5627   29.4890 C   0  0  1  0  0  0  0  0  0  0  0  0
   31.1789   25.6631   30.9052 O   0  0  0  0  0  0  0  0  0  0  0  0
   36.9464   22.4367   30.2492 H   0  0  0  0  0  0  0  0  0  0  0  0
   39.0398   23.1239   31.4071 H   0  0  0  0  0  0  0  0  0  0  0  0
   39.3336   25.4799   32.1689 H   0  0  0  0  0  0  0  0  0  0  0  0
   37.5157   27.1478   31.7735 H   0  0  0  0  0  0  0  0  0  0  0  0
   35.4138   26.4555   30.6110 H   0  0  0  0  0  0  0  0  0  0  0  0
   33.8032   25.6175   30.4201 H   0  0  0  0  0  0  0  0  0  0  0  0
   32.0172   23.5032   29.5806 H   0  0  0  0  0  0  0  0  0  0  0  0
   30.9711   22.9809   27.4388 H   0  0  0  0  0  0  0  0  0  0  0  0
   31.8693   24.6508   25.0634 H   0  0  0  0  0  0  0  0  0  0  0  0
   32.8098   23.1937   25.5391 H   0  0  0  0  0  0  0  0  0  0  0  0
   30.3171   22.3801   25.6278 H   0  0  0  0  0  0  0  0  0  0  0  0
   30.7632   25.9433   26.8003 H   0  0  0  0  0  0  0  0  0  0  0  0
   28.4807   24.4145   27.2940 H   0  0  0  0  0  0  0  0  0  0  0  0
   29.6183   24.3980   29.1702 H   0  0  0  0  0  0  0  0  0  0  0  0
   29.0719   26.6015   29.8273 H   0  0  0  0  0  0  0  0  0  0  0  0
   31.8122   26.5259   29.1466 H   0  0  0  0  0  0  0  0  0  0  0  0
   31.9676   25.3141   31.3914 H   0  0  0  0  0  0  0  0  0  0  0  0
  1  2  2  0
  1  6  1  0
  2  3  1  0
  3  4  2  0
  4  5  1  0
  5  6  2  0
  6  7  1  0
  7  8  2  0
  7  9  1  0
 10  9  1  0
 10 11  1  0
 10 19  1  0
 11 12  1  0
 12 13  1  0
 12 15  1  0
 13 14  1  0
 15 16  1  0
 15 17  1  0
 17 18  1  0
 17 19  1  0
 19 20  1  0
  1 21  1  0
  2 22  1  0
  3 23  1  0
  4 24  1  0
  5 25  1  0
  9 26  1  0
 10 27  1  1
 12 28  1  1
 13 29  1  0
 13 30  1  0
 14 31  1  0
 15 32  1  6
 16 33  1  0
 17 34  1  1
 18 35  1  0
 19 36  1  6
 20 37  1  0
M  END
>  <filename_input>  (2) 
3g2n_docked.sdf

>  <pdb_id>  (2) 
3g2n

>  <pose_rank>  (2) 
1

>  <num_atoms_heavy>  (2) 
20

>  <num_torsions>  (2) 
3

>  <pose>  (2) 
[32.419982772610474, 24.4469044285202, 29.184151532840126, 1.5333717087472674, 0.5404227481624793, 0.7809172323283372, 7.1435571403470215, 3.5546405669497494, -2.3621991281250523]

>  <energy>  (2) 
-2727.305084108905

>  <inter_energy>  (2) 
-2725.020820185613

>  <intra_energy>  (2) 
17.16203343917434

>  <rmsd>  (2) 
3.66934

>  <sdf_rank>  (2) 
0

$$$$

     RDKit          3D

 37 38  0  0  0  0  0  0  0  0999 V2000
   35.6619   23.9143   32.0771 C   0  0  0  0  0  0  0  0  0  0  0  0
   36.7576   24.1242   32.9122 C   0  0  0  0  0  0  0  0  0  0  0  0
   38.0134   24.3798   32.3681 C   0  0  0  0  0  0  0  0  0  0  0  0
   38.1694   24.4271   30.9809 C   0  0  0  0  0  0  0  0  0  0  0  0
   37.0680   24.2162   30.1430 C   0  0  0  0  0  0  0  0  0  0  0  0
   35.8125   23.9591   30.6950 C   0  0  0  0  0  0  0  0  0  0  0  0
   34.6038   23.7355   29.7784 C   0  0  0  0  0  0  0  0  0  0  0  0
   33.5038   24.1949   30.0773 O   0  0  0  0  0  0  0  0  0  0  0  0
   34.8376   23.0208   28.6806 N   0  0  0  0  0  0  0  0  0  0  0  0
   33.7260   22.7458   27.7327 C   0  0  2  0  0  0  0  0  0  0  0  0
   32.7617   23.8541   27.7741 O   0  0  0  0  0  0  0  0  0  0  0  0
   31.6859   23.6835   26.8470 C   0  0  2  0  0  0  0  0  0  0  0  0
   30.8189   24.9519   26.9525 C   0  0  0  0  0  0  0  0  0  0  0  0
   30.6801   25.3292   28.3242 O   0  0  0  0  0  0  0  0  0  0  0  0
   30.9223   22.3806   27.1924 C   0  0  1  0  0  0  0  0  0  0  0  0
   29.8851   22.1807   26.2431 O   0  0  0  0  0  0  0  0  0  0  0  0
   31.8538   21.1570   27.1924 C   0  0  2  0  0  0  0  0  0  0  0  0
   31.1400   20.0075   27.6477 O   0  0  0  0  0  0  0  0  0  0  0  0
   33.0723   21.4019   28.0977 C   0  0  1  0  0  0  0  0  0  0  0  0
   34.0258   20.3316   27.9852 O   0  0  0  0  0  0  0  0  0  0  0  0
   34.6725   23.7121   32.5132 H   0  0  0  0  0  0  0  0  0  0  0  0
   36.6299   24.0878   34.0042 H   0  0  0  0  0  0  0  0  0  0  0  0
   38.8785   24.5437   33.0275 H   0  0  0  0  0  0  0  0  0  0  0  0
   39.1593   24.6303   30.5462 H   0  0  0  0  0  0  0  0  0  0  0  0
   37.1920   24.2532   29.0507 H   0  0  0  0  0  0  0  0  0  0  0  0
   35.7832   22.6603   28.4888 H   0  0  0  0  0  0  0  0  0  0  0  0
   34.1059   22.6710   26.7031 H   0  0  0  0  0  0  0  0  0  0  0  0
   32.0225   23.5707   25.8059 H   0  0  0  0  0  0  0  0  0  0  0  0
   31.2987   25.7700   26.3953 H   0  0  0  0  0  0  0  0  0  0  0  0
   29.8243   24.7491   26.5286 H   0  0  0  0  0  0  0  0  0  0  0  0
   30.9573   24.5757   28.9034 H   0  0  0  0  0  0  0  0  0  0  0  0
   30.5043   22.4889   28.2041 H   0  0  0  0  0  0  0  0  0  0  0  0
   29.0315   22.0161   26.7168 H   0  0  0  0  0  0  0  0  0  0  0  0
   32.2084   20.9875   26.1650 H   0  0  0  0  0  0  0  0  0  0  0  0
   31.1320   19.9947   28.6376 H   0  0  0  0  0  0  0  0  0  0  0  0
   32.7306   21.4365   29.1427 H   0  0  0  0  0  0  0  0  0  0  0  0
   34.2932   20.0315   28.8899 H   0  0  0  0  0  0  0  0  0  0  0  0
  1  2  2  0
  1  6  1  0
  2  3  1  0
  3  4  2  0
  4  5  1  0
  5  6  2  0
  6  7  1  0
  7  8  2  0
  7  9  1  0
 10  9  1  0
 10 11  1  0
 10 19  1  0
 11 12  1  0
 12 13  1  0
 12 15  1  0
 13 14  1  0
 15 16  1  0
 15 17  1  0
 17 18  1  0
 17 19  1  0
 19 20  1  0
  1 21  1  0
  2 22  1  0
  3 23  1  0
  4 24  1  0
  5 25  1  0
  9 26  1  0
 10 27  1  6
 12 28  1  6
 13 29  1  0
 13 30  1  0
 14 31  1  0
 15 32  1  1
 16 33  1  0
 17 34  1  6
 18 35  1  0
 19 36  1  1
 20 37  1  0
M  END
>  <filename_input>  (3) 
3g2n_docked.sdf

>  <pdb_id>  (3) 
3g2n

>  <pose_rank>  (3) 
2

>  <num_atoms_heavy>  (3) 
20

>  <num_torsions>  (3) 
3

>  <pose>  (3) 
[33.72595376190515, 22.745766345731727, 27.73272216265802, -1.8528092595728467, -0.669215245554593, -1.4303576119194323, -3.9491891308810034, -1.7041342608299581, 0.4343474495166662]

>  <energy>  (3) 
-969.0959076300487

>  <inter_energy>  (3) 
-1060.628391135494

>  <intra_energy>  (3) 
28.105404471063284

>  <rmsd>  (3) 
3.04023

>  <sdf_rank>  (3) 
0

$$$$

     RDKit          3D

 37 38  0  0  0  0  0  0  0  0999 V2000
   37.6662   23.7086   30.0321 C   0  0  0  0  0  0  0  0  0  0  0  0
   38.5412   23.9791   31.0824 C   0  0  0  0  0  0  0  0  0  0  0  0
   38.3075   25.0611   31.9269 C   0  0  0  0  0  0  0  0  0  0  0  0
   37.1904   25.8729   31.7177 C   0  0  0  0  0  0  0  0  0  0  0  0
   36.3120   25.6000   30.6623 C   0  0  0  0  0  0  0  0  0  0  0  0
   36.5531   24.5149   29.8189 C   0  0  0  0  0  0  0  0  0  0  0  0
   35.5877   24.2105   28.6672 C   0  0  0  0  0  0  0  0  0  0  0  0
   35.9703   24.2782   27.5012 O   0  0  0  0  0  0  0  0  0  0  0  0
   34.3469   23.8895   29.0250 N   0  0  0  0  0  0  0  0  0  0  0  0
   33.3367   23.5831   27.9783 C   0  0  2  0  0  0  0  0  0  0  0  0
   32.0371   24.1444   28.3729 O   0  0  0  0  0  0  0  0  0  0  0  0
   31.0230   23.9327   27.3866 C   0  0  2  0  0  0  0  0  0  0  0  0
   29.7593   24.6433   27.9061 C   0  0  0  0  0  0  0  0  0  0  0  0
   30.0592   26.0101   28.1974 O   0  0  0  0  0  0  0  0  0  0  0  0
   30.8343   22.4098   27.1741 C   0  0  1  0  0  0  0  0  0  0  0  0
   29.8648   22.1958   26.1586 O   0  0  0  0  0  0  0  0  0  0  0  0
   32.1503   21.7229   26.7728 C   0  0  2  0  0  0  0  0  0  0  0  0
   31.9604   20.3088   26.7223 O   0  0  0  0  0  0  0  0  0  0  0  0
   33.2666   22.0598   27.7752 C   0  0  1  0  0  0  0  0  0  0  0  0
   34.5356   21.5529   27.3284 O   0  0  0  0  0  0  0  0  0  0  0  0
   37.8569   22.8527   29.3680 H   0  0  0  0  0  0  0  0  0  0  0  0
   39.4189   23.3361   31.2447 H   0  0  0  0  0  0  0  0  0  0  0  0
   38.9993   25.2754   32.7549 H   0  0  0  0  0  0  0  0  0  0  0  0
   37.0005   26.7279   32.3832 H   0  0  0  0  0  0  0  0  0  0  0  0
   35.4328   26.2403   30.4982 H   0  0  0  0  0  0  0  0  0  0  0  0
   34.0879   23.8537   30.0213 H   0  0  0  0  0  0  0  0  0  0  0  0
   33.6222   24.0415   27.0200 H   0  0  0  0  0  0  0  0  0  0  0  0
   31.2816   24.3466   26.4008 H   0  0  0  0  0  0  0  0  0  0  0  0
   28.9726   24.5973   27.1387 H   0  0  0  0  0  0  0  0  0  0  0  0
   29.4119   24.1438   28.8226 H   0  0  0  0  0  0  0  0  0  0  0  0
   30.0877   26.1399   29.1784 H   0  0  0  0  0  0  0  0  0  0  0  0
   30.4995   21.9720   28.1261 H   0  0  0  0  0  0  0  0  0  0  0  0
   28.9878   22.0022   26.5752 H   0  0  0  0  0  0  0  0  0  0  0  0
   32.4479   22.0904   25.7796 H   0  0  0  0  0  0  0  0  0  0  0  0
   31.9121   19.9492   27.6434 H   0  0  0  0  0  0  0  0  0  0  0  0
   33.0328   21.5761   28.7351 H   0  0  0  0  0  0  0  0  0  0  0  0
   35.0963   21.3289   28.1130 H   0  0  0  0  0  0  0  0  0  0  0  0
  1  2  2  0
  1  6  1  0
  2  3  1  0
  3  4  2  0
  4  5  1  0
  5  6  2  0
  6  7  1  0
  7  8  2  0
  7  9  1  0
 10  9  1  0
 10 11  1  0
 10 19  1  0
 11 12  1  0
 12 13  1  0
 12 15  1  0
 13 14  1  0
 15 16  1  0
 15 17  1  0
 17 18  1  0
 17 19  1  0
 19 20  1  0
  1 21  1  0
  2 22  1  0
  3 23  1  0
  4 24  1  0
  5 25  1  0
  9 26  1  0
 10 27  1  6
 12 28  1  6
 13 29  1  0
 13 30  1  0
 14 31  1  0
 15 32  1  1
 16 33  1  0
 17 34  1  6
 18 35  1  0
 19 36  1  1
 20 37  1  0
M  END
>  <filename_input>  (4) 
3g2n_docked.sdf

>  <pdb_id>  (4) 
3g2n

>  <pose_rank>  (4) 
3

>  <num_atoms_heavy>  (4) 
20

>  <num_torsions>  (4) 
3

>  <pose>  (4) 
[33.33671568856943, 23.583071509221146, 27.978302918243585, 3.086098890083081, 1.4973551953048367, 2.722643323268356, -0.6607257225698583, -3.4972993569055606, -4.172745565816403]

>  <energy>  (4) 
-999.5395700237427

>  <inter_energy>  (4) 
-1067.3065694473744

>  <intra_energy>  (4) 
9.142511921113375

>  <rmsd>  (4) 
2.99909

>  <sdf_rank>  (4) 
0

$$$$

     RDKit          3D

 37 38  0  0  0  0  0  0  0  0999 V2000
   36.8350   25.2037   29.6169 C   0  0  0  0  0  0  0  0  0  0  0  0
   37.6490   25.9322   30.4821 C   0  0  0  0  0  0  0  0  0  0  0  0
   38.1749   25.3296   31.6218 C   0  0  0  0  0  0  0  0  0  0  0  0
   37.8844   23.9906   31.8927 C   0  0  0  0  0  0  0  0  0  0  0  0
   37.0667   23.2597   31.0226 C   0  0  0  0  0  0  0  0  0  0  0  0
   36.5419   23.8702   29.8830 C   0  0  0  0  0  0  0  0  0  0  0  0
   35.6522   23.0687   28.9252 C   0  0  0  0  0  0  0  0  0  0  0  0
   36.0884   22.0659   28.3644 O   0  0  0  0  0  0  0  0  0  0  0  0
   34.4198   23.5401   28.7531 N   0  0  0  0  0  0  0  0  0  0  0  0
   33.4846   22.8341   27.8383 C   0  0  2  0  0  0  0  0  0  0  0  0
   33.4783   21.3993   28.1564 O   0  0  0  0  0  0  0  0  0  0  0  0
   32.5594   20.6595   27.3476 C   0  0  2  0  0  0  0  0  0  0  0  0
   32.6103   19.2061   27.8543 C   0  0  0  0  0  0  0  0  0  0  0  0
   31.6921   19.0398   28.9371 O   0  0  0  0  0  0  0  0  0  0  0  0
   32.9604   20.8111   25.8589 C   0  0  1  0  0  0  0  0  0  0  0  0
   32.0206   20.1203   25.0487 O   0  0  0  0  0  0  0  0  0  0  0  0
   33.0129   22.2869   25.4302 C   0  0  2  0  0  0  0  0  0  0  0  0
   33.5172   22.3845   24.0981 O   0  0  0  0  0  0  0  0  0  0  0  0
   33.9070   23.0978   26.3828 C   0  0  1  0  0  0  0  0  0  0  0  0
   33.8405   24.5032   26.0864 O   0  0  0  0  0  0  0  0  0  0  0  0
   36.4221   25.6858   28.7185 H   0  0  0  0  0  0  0  0  0  0  0  0
   37.8767   26.9860   30.2641 H   0  0  0  0  0  0  0  0  0  0  0  0
   38.8159   25.9054   32.3056 H   0  0  0  0  0  0  0  0  0  0  0  0
   38.2988   23.5095   32.7910 H   0  0  0  0  0  0  0  0  0  0  0  0
   36.8382   22.2053   31.2371 H   0  0  0  0  0  0  0  0  0  0  0  0
   34.1157   24.3891   29.2507 H   0  0  0  0  0  0  0  0  0  0  0  0
   32.4592   23.2103   27.9687 H   0  0  0  0  0  0  0  0  0  0  0  0
   31.5240   21.0238   27.4213 H   0  0  0  0  0  0  0  0  0  0  0  0
   32.3374   18.5239   27.0357 H   0  0  0  0  0  0  0  0  0  0  0  0
   33.6285   18.9776   28.2023 H   0  0  0  0  0  0  0  0  0  0  0  0
   32.1759   19.1274   29.7964 H   0  0  0  0  0  0  0  0  0  0  0  0
   33.9665   20.3848   25.7322 H   0  0  0  0  0  0  0  0  0  0  0  0
   31.3731   19.6444   25.6270 H   0  0  0  0  0  0  0  0  0  0  0  0
   31.9938   22.6989   25.4694 H   0  0  0  0  0  0  0  0  0  0  0  0
   34.4888   22.5725   24.1260 H   0  0  0  0  0  0  0  0  0  0  0  0
   34.9495   22.7759   26.2435 H   0  0  0  0  0  0  0  0  0  0  0  0
   33.8162   25.0179   26.9317 H   0  0  0  0  0  0  0  0  0  0  0  0
  1  2  2  0
  1  6  1  0
  2  3  1  0
  3  4  2  0
  4  5  1  0
  5  6  2  0
  6  7  1  0
  7  8  2  0
  7  9  1  0
 10  9  1  0
 10 11  1  0
 10 19  1  0
 11 12  1  0
 12 13  1  0
 12 15  1  0
 13 14  1  0
 15 16  1  0
 15 17  1  0
 17 18  1  0
 17 19  1  0
 19 20  1  0
  1 21  1  0
  2 22  1  0
  3 23  1  0
  4 24  1  0
  5 25  1  0
  9 26  1  0
 10 27  1  6
 12 28  1  6
 13 29  1  0
 13 30  1  0
 14 31  1  0
 15 32  1  1
 16 33  1  0
 17 34  1  6
 18 35  1  0
 19 36  1  1
 20 37  1  0
M  END
>  <filename_input>  (5) 
3g2n_docked.sdf

>  <pdb_id>  (5) 
3g2n

>  <pose_rank>  (5) 
4

>  <num_atoms_heavy>  (5) 
20

>  <num_torsions>  (5) 
3

>  <pose>  (5) 
[33.484587309593316, 22.834114802712687, 27.83830212572727, -0.04825542381208375, -0.18353177860385111, 0.18965243732773868, 8.94980165591912, 5.98616275913053, 2.675781145127089]

>  <energy>  (5) 
-1791.2541804029095

>  <inter_energy>  (5) 
-1469.5884354305101

>  <intra_energy>  (5) 
21.461251563623204

>  <rmsd>  (5) 
1.18842

>  <sdf_rank>  (5) 
0

$$$$

     RDKit          3D

 37 38  0  0  0  0  0  0  0  0999 V2000
   27.6166   28.1417   29.3536 C   0  0  0  0  0  0  0  0  0  0  0  0
   27.1374   29.4347   29.5545 C   0  0  0  0  0  0  0  0  0  0  0  0
   27.8689   30.5301   29.1034 C   0  0  0  0  0  0  0  0  0  0  0  0
   29.0845   30.3267   28.4464 C   0  0  0  0  0  0  0  0  0  0  0  0
   29.5648   29.0272   28.2450 C   0  0  0  0  0  0  0  0  0  0  0  0
   28.8273   27.9341   28.7010 C   0  0  0  0  0  0  0  0  0  0  0  0
   29.3486   26.5100   28.4744 C   0  0  0  0  0  0  0  0  0  0  0  0
   28.5628   25.5765   28.3279 O   0  0  0  0  0  0  0  0  0  0  0  0
   30.6725   26.3763   28.4611 N   0  0  0  0  0  0  0  0  0  0  0  0
   31.2729   25.0323   28.2538 C   0  0  2  0  0  0  0  0  0  0  0  0
   32.4606   24.8897   29.1076 O   0  0  0  0  0  0  0  0  0  0  0  0
   33.0649   23.5977   28.9998 C   0  0  2  0  0  0  0  0  0  0  0  0
   34.2314   23.5807   30.0051 C   0  0  0  0  0  0  0  0  0  0  0  0
   34.9488   22.3496   29.8915 O   0  0  0  0  0  0  0  0  0  0  0  0
   33.5075   23.3670   27.5332 C   0  0  1  0  0  0  0  0  0  0  0  0
   34.0614   22.0650   27.4111 O   0  0  0  0  0  0  0  0  0  0  0  0
   32.3313   23.5127   26.5533 C   0  0  2  0  0  0  0  0  0  0  0  0
   32.8091   23.4287   25.2106 O   0  0  0  0  0  0  0  0  0  0  0  0
   31.6120   24.8553   26.7638 C   0  0  1  0  0  0  0  0  0  0  0  0
   30.4203   24.9366   25.9635 O   0  0  0  0  0  0  0  0  0  0  0  0
   27.0343   27.2805   29.7131 H   0  0  0  0  0  0  0  0  0  0  0  0
   26.1787   29.5904   30.0709 H   0  0  0  0  0  0  0  0  0  0  0  0
   27.4913   31.5508   29.2636 H   0  0  0  0  0  0  0  0  0  0  0  0
   29.6654   31.1888   28.0866 H   0  0  0  0  0  0  0  0  0  0  0  0
   30.5226   28.8682   27.7279 H   0  0  0  0  0  0  0  0  0  0  0  0
   31.2776   27.1992   28.5936 H   0  0  0  0  0  0  0  0  0  0  0  0
   30.5607   24.2432   28.5369 H   0  0  0  0  0  0  0  0  0  0  0  0
   32.3771   22.7741   29.2421 H   0  0  0  0  0  0  0  0  0  0  0  0
   34.9098   24.4200   29.7920 H   0  0  0  0  0  0  0  0  0  0  0  0
   33.8333   23.6769   31.0260 H   0  0  0  0  0  0  0  0  0  0  0  0
   35.1518   22.0013   30.7957 H   0  0  0  0  0  0  0  0  0  0  0  0
   34.2571   24.1310   27.2796 H   0  0  0  0  0  0  0  0  0  0  0  0
   34.2215   21.6886   28.3127 H   0  0  0  0  0  0  0  0  0  0  0  0
   31.6164   22.6982   26.7417 H   0  0  0  0  0  0  0  0  0  0  0  0
   33.7841   23.2572   25.2174 H   0  0  0  0  0  0  0  0  0  0  0  0
   32.2840   25.6661   26.4458 H   0  0  0  0  0  0  0  0  0  0  0  0
   29.6285   24.9906   26.5553 H   0  0  0  0  0  0  0  0  0  0  0  0
  1  2  2  0
  1  6  1  0
  2  3  1  0
  3  4  2  0
  4  5  1  0
  5  6  2  0
  6  7  1  0
  7  8  2  0
  7  9  1  0
 10  9  1  0
 10 11  1  0
 10 19  1  0
 11 12  1  0
 12 13  1  0
 12 15  1  0
 13 14  1  0
 15 16  1  0
 15 17  1  0
 17 18  1  0
 17 19  1  0
 19 20  1  0
  1 21  1  0
  2 22  1  0
  3 23  1  0
  4 24  1  0
  5 25  1  0
  9 26  1  0
 10 27  1  1
 12 28  1  1
 13 29  1  0
 13 30  1  0
 14 31  1  0
 15 32  1  6
 16 33  1  0
 17 34  1  1
 18 35  1  0
 19 36  1  6
 20 37  1  0
M  END
>  <filename_input>  (6) 
3g2n_docked.sdf

>  <pdb_id>  (6) 
3g2n

>  <pose_rank>  (6) 
5

>  <num_atoms_heavy>  (6) 
20

>  <num_torsions>  (6) 
3

>  <pose>  (6) 
[31.27291016915399, 25.03227799597048, 28.253835952981564, 1.5050793584854347, 0.3614960635988396, -4.43800175721767, -0.6671520420324593, 4.435552512063952, -8.193420683962545]

>  <energy>  (6) 
-316.692339271541

>  <inter_energy>  (6) 
-295.6749762559039

>  <intra_energy>  (6) 
26.411835175660176

>  <rmsd>  (6) 
6.64042

>  <sdf_rank>  (6) 
0

$$$$

     RDKit          3D

 37 38  0  0  0  0  0  0  0  0999 V2000
   32.6093   21.6349   28.1082 C   0  0  0  0  0  0  0  0  0  0  0  0
   31.6114   21.2086   27.2338 C   0  0  0  0  0  0  0  0  0  0  0  0
   30.8152   22.1402   26.5730 C   0  0  0  0  0  0  0  0  0  0  0  0
   31.0229   23.5044   26.7890 C   0  0  0  0  0  0  0  0  0  0  0  0
   32.0257   23.9314   27.6675 C   0  0  0  0  0  0  0  0  0  0  0  0
   32.8191   22.9923   28.3276 C   0  0  0  0  0  0  0  0  0  0  0  0
   33.9228   23.4588   29.2843 C   0  0  0  0  0  0  0  0  0  0  0  0
   33.7096   24.3686   30.0827 O   0  0  0  0  0  0  0  0  0  0  0  0
   35.0877   22.8255   29.1726 N   0  0  0  0  0  0  0  0  0  0  0  0
   36.2210   23.2116   30.0538 C   0  0  2  0  0  0  0  0  0  0  0  0
   35.9871   22.6917   31.4084 O   0  0  0  0  0  0  0  0  0  0  0  0
   37.0646   22.9812   32.3035 C   0  0  2  0  0  0  0  0  0  0  0  0
   36.7088   22.3063   33.6412 C   0  0  0  0  0  0  0  0  0  0  0  0
   37.6752   21.2981   33.9455 O   0  0  0  0  0  0  0  0  0  0  0  0
   37.2344   24.5174   32.4104 C   0  0  1  0  0  0  0  0  0  0  0  0
   38.3362   24.8083   33.2580 O   0  0  0  0  0  0  0  0  0  0  0  0
   37.4682   25.1621   31.0341 C   0  0  2  0  0  0  0  0  0  0  0  0
   37.4815   26.5838   31.1635 O   0  0  0  0  0  0  0  0  0  0  0  0
   36.3691   24.7428   30.0439 C   0  0  1  0  0  0  0  0  0  0  0  0
   36.6603   25.2115   28.7163 O   0  0  0  0  0  0  0  0  0  0  0  0
   33.2344   20.8938   28.6277 H   0  0  0  0  0  0  0  0  0  0  0  0
   31.4524   20.1333   27.0652 H   0  0  0  0  0  0  0  0  0  0  0  0
   30.0265   21.8035   25.8842 H   0  0  0  0  0  0  0  0  0  0  0  0
   30.3975   24.2444   26.2681 H   0  0  0  0  0  0  0  0  0  0  0  0
   32.1881   25.0060   27.8373 H   0  0  0  0  0  0  0  0  0  0  0  0
   35.2035   22.0722   28.4797 H   0  0  0  0  0  0  0  0  0  0  0  0
   37.1619   22.7762   29.6861 H   0  0  0  0  0  0  0  0  0  0  0  0
   38.0338   22.5924   31.9578 H   0  0  0  0  0  0  0  0  0  0  0  0
   36.7038   23.0611   34.4414 H   0  0  0  0  0  0  0  0  0  0  0  0
   35.7136   21.8443   33.5622 H   0  0  0  0  0  0  0  0  0  0  0  0
   37.7609   21.2088   34.9277 H   0  0  0  0  0  0  0  0  0  0  0  0
   36.3058   24.9344   32.8272 H   0  0  0  0  0  0  0  0  0  0  0  0
   38.0535   24.7336   34.2039 H   0  0  0  0  0  0  0  0  0  0  0  0
   38.4388   24.8183   30.6472 H   0  0  0  0  0  0  0  0  0  0  0  0
   37.4838   26.8278   32.1230 H   0  0  0  0  0  0  0  0  0  0  0  0
   35.4202   25.2011   30.3595 H   0  0  0  0  0  0  0  0  0  0  0  0
   37.1819   26.0512   28.7698 H   0  0  0  0  0  0  0  0  0  0  0  0
  1  2  2  0
  1  6  1  0
  2  3  1  0
  3  4  2  0
  4  5  1  0
  5  6  2  0
  6  7  1  0
  7  8  2  0
  7  9  1  0
 10  9  1  0
 10 11  1  0
 10 19  1  0
 11 12  1  0
 12 13  1  0
 12 15  1  0
 13 14  1  0
 15 16  1  0
 15 17  1  0
 17 18  1  0
 17 19  1  0
 19 20  1  0
  1 21  1  0
  2 22  1  0
  3 23  1  0
  4 24  1  0
  5 25  1  0
  9 26  1  0
 10 27  1  6
 12 28  1  6
 13 29  1  0
 13 30  1  0
 14 31  1  0
 15 32  1  1
 16 33  1  0
 17 34  1  6
 18 35  1  0
 19 36  1  1
 20 37  1  0
M  END
>  <filename_input>  (7) 
3g2n_docked.sdf

>  <pdb_id>  (7) 
3g2n

>  <pose_rank>  (7) 
6

>  <num_atoms_heavy>  (7) 
20

>  <num_torsions>  (7) 
3

>  <pose>  (7) 
[36.221017866027836, 23.21158571736407, 30.053811387118646, -0.5275588266311703, -2.4140161562741946, 2.014670794992294, 3.1140989462173643, 1.5140846281345424, -3.0868531511437944]

>  <energy>  (7) 
-879.1572091332428

>  <inter_energy>  (7) 
-645.2634738711934

>  <intra_energy>  (7) 
30.11225123489717

>  <rmsd>  (7) 
6.75634

>  <sdf_rank>  (7) 
0

$$$$

     RDKit          3D

 37 38  0  0  0  0  0  0  0  0999 V2000
   36.3857   24.4987   31.8144 C   0  0  0  0  0  0  0  0  0  0  0  0
   37.5589   24.9456   32.4190 C   0  0  0  0  0  0  0  0  0  0  0  0
   38.7807   24.8027   31.7668 C   0  0  0  0  0  0  0  0  0  0  0  0
   38.8245   24.2112   30.5023 C   0  0  0  0  0  0  0  0  0  0  0  0
   37.6451   23.7628   29.8958 C   0  0  0  0  0  0  0  0  0  0  0  0
   36.4243   23.9078   30.5557 C   0  0  0  0  0  0  0  0  0  0  0  0
   35.1309   23.4239   29.8893 C   0  0  0  0  0  0  0  0  0  0  0  0
   34.1450   23.1517   30.5706 O   0  0  0  0  0  0  0  0  0  0  0  0
   35.1704   23.3188   28.5634 N   0  0  0  0  0  0  0  0  0  0  0  0
   33.9661   22.8518   27.8275 C   0  0  2  0  0  0  0  0  0  0  0  0
   33.7061   21.4434   28.1576 O   0  0  0  0  0  0  0  0  0  0  0  0
   32.5280   20.9373   27.5237 C   0  0  2  0  0  0  0  0  0  0  0  0
   32.3507   19.4937   28.0302 C   0  0  0  0  0  0  0  0  0  0  0  0
   31.2184   19.4227   28.8997 O   0  0  0  0  0  0  0  0  0  0  0  0
   32.6972   21.0383   25.9871 C   0  0  1  0  0  0  0  0  0  0  0  0
   31.5092   20.5845   25.3549 O   0  0  0  0  0  0  0  0  0  0  0  0
   32.9920   22.4798   25.5398 C   0  0  2  0  0  0  0  0  0  0  0  0
   33.2752   22.5021   24.1407 O   0  0  0  0  0  0  0  0  0  0  0  0
   34.1854   23.0570   26.3188 C   0  0  1  0  0  0  0  0  0  0  0  0
   34.3727   24.4515   26.0228 O   0  0  0  0  0  0  0  0  0  0  0  0
   35.4237   24.6138   32.3353 H   0  0  0  0  0  0  0  0  0  0  0  0
   37.5197   25.4124   33.4143 H   0  0  0  0  0  0  0  0  0  0  0  0
   39.7069   25.1539   32.2451 H   0  0  0  0  0  0  0  0  0  0  0  0
   39.7871   24.0976   29.9822 H   0  0  0  0  0  0  0  0  0  0  0  0
   37.6808   23.2967   28.9000 H   0  0  0  0  0  0  0  0  0  0  0  0
   36.0302   23.5595   28.0500 H   0  0  0  0  0  0  0  0  0  0  0  0
   33.0816   23.4340   28.1253 H   0  0  0  0  0  0  0  0  0  0  0  0
   31.6219   21.5115   27.7674 H   0  0  0  0  0  0  0  0  0  0  0  0
   32.1958   18.8221   27.1729 H   0  0  0  0  0  0  0  0  0  0  0  0
   33.2523   19.1882   28.5813 H   0  0  0  0  0  0  0  0  0  0  0  0
   31.5237   19.4419   29.8413 H   0  0  0  0  0  0  0  0  0  0  0  0
   33.5530   20.4112   25.6968 H   0  0  0  0  0  0  0  0  0  0  0  0
   30.8451   20.3308   26.0438 H   0  0  0  0  0  0  0  0  0  0  0  0
   32.1059   23.0981   25.7463 H   0  0  0  0  0  0  0  0  0  0  0  0
   34.2525   22.5793   24.0030 H   0  0  0  0  0  0  0  0  0  0  0  0
   35.0965   22.5243   26.0088 H   0  0  0  0  0  0  0  0  0  0  0  0
   34.4413   24.9620   26.8682 H   0  0  0  0  0  0  0  0  0  0  0  0
  1  2  2  0
  1  6  1  0
  2  3  1  0
  3  4  2  0
  4  5  1  0
  5  6  2  0
  6  7  1  0
  7  8  2  0
  7  9  1  0
 10  9  1  0
 10 11  1  0
 10 19  1  0
 11 12  1  0
 12 13  1  0
 12 15  1  0
 13 14  1  0
 15 16  1  0
 15 17  1  0
 17 18  1  0
 17 19  1  0
 19 20  1  0
  1 21  1  0
  2 22  1  0
  3 23  1  0
  4 24  1  0
  5 25  1  0
  9 26  1  0
 10 27  1  1
 12 28  1  1
 13 29  1  0
 13 30  1  0
 14 31  1  0
 15 32  1  6
 16 33  1  0
 17 34  1  6
 18 35  1  0
 19 36  1  6
 20 37  1  0
M  END
>  <filename_input>  (8) 
3g2n_docked.sdf

>  <pdb_id>  (8) 
3g2n

>  <pose_rank>  (8) 
7

>  <num_atoms_heavy>  (8) 
20

>  <num_torsions>  (8) 
3

>  <pose>  (8) 
[33.96607242154299, 22.851759088356694, 27.82752502275858, 5.446374092583865, 1.0578903242124722, 2.8405433301052896, 0.6334538849258236, 3.497083698966585, 3.076664945074448]

>  <energy>  (8) 
-2078.0789876623744

>  <inter_energy>  (8) 
-2176.729797255764

>  <intra_energy>  (8) 
5.070615455722671

>  <rmsd>  (8) 
0.915944

>  <sdf_rank>  (8) 
0

$$$$

     RDKit          3D

 37 38  0  0  0  0  0  0  0  0999 V2000
   37.5582   22.8876   30.9180 C   0  0  0  0  0  0  0  0  0  0  0  0
   38.7038   23.4388   31.4888 C   0  0  0  0  0  0  0  0  0  0  0  0
   38.9268   24.8115   31.4242 C   0  0  0  0  0  0  0  0  0  0  0  0
   37.9956   25.6342   30.7862 C   0  0  0  0  0  0  0  0  0  0  0  0
   36.8451   25.0793   30.2133 C   0  0  0  0  0  0  0  0  0  0  0  0
   36.6286   23.7026   30.2804 C   0  0  0  0  0  0  0  0  0  0  0  0
   35.3651   23.0945   29.6599 C   0  0  0  0  0  0  0  0  0  0  0  0
   34.7295   22.2327   30.2629 O   0  0  0  0  0  0  0  0  0  0  0  0
   35.0357   23.5551   28.4557 N   0  0  0  0  0  0  0  0  0  0  0  0
   33.8293   23.0217   27.7701 C   0  0  2  0  0  0  0  0  0  0  0  0
   33.6940   21.5877   28.0623 O   0  0  0  0  0  0  0  0  0  0  0  0
   32.5224   21.0139   27.4757 C   0  0  2  0  0  0  0  0  0  0  0  0
   32.4821   19.5455   27.9381 C   0  0  0  0  0  0  0  0  0  0  0  0
   33.3804   18.7651   27.1463 O   0  0  0  0  0  0  0  0  0  0  0  0
   32.5955   21.1771   25.9369 C   0  0  1  0  0  0  0  0  0  0  0  0
   31.4104   20.6546   25.3543 O   0  0  0  0  0  0  0  0  0  0  0  0
   32.7564   22.6504   25.5269 C   0  0  2  0  0  0  0  0  0  0  0  0
   32.9567   22.7394   24.1162 O   0  0  0  0  0  0  0  0  0  0  0  0
   33.9462   23.2915   26.2601 C   0  0  1  0  0  0  0  0  0  0  0  0
   34.0122   24.7050   26.0054 O   0  0  0  0  0  0  0  0  0  0  0  0
   37.3882   21.8022   30.9718 H   0  0  0  0  0  0  0  0  0  0  0  0
   39.4337   22.7875   31.9918 H   0  0  0  0  0  0  0  0  0  0  0  0
   39.8320   25.2461   31.8733 H   0  0  0  0  0  0  0  0  0  0  0  0
   38.1665   26.7196   30.7339 H   0  0  0  0  0  0  0  0  0  0  0  0
   36.1126   25.7281   29.7107 H   0  0  0  0  0  0  0  0  0  0  0  0
   35.6131   24.2769   28.0013 H   0  0  0  0  0  0  0  0  0  0  0  0
   32.9225   23.5249   28.1367 H   0  0  0  0  0  0  0  0  0  0  0  0
   31.5916   21.5093   27.7892 H   0  0  0  0  0  0  0  0  0  0  0  0
   32.7813   19.4868   28.9950 H   0  0  0  0  0  0  0  0  0  0  0  0
   31.4604   19.1550   27.8207 H   0  0  0  0  0  0  0  0  0  0  0  0
   33.9781   18.2458   27.7406 H   0  0  0  0  0  0  0  0  0  0  0  0
   33.4775   20.6266   25.5776 H   0  0  0  0  0  0  0  0  0  0  0  0
   30.7846   20.3788   26.0702 H   0  0  0  0  0  0  0  0  0  0  0  0
   31.8401   23.1924   25.8039 H   0  0  0  0  0  0  0  0  0  0  0  0
   33.8459   23.1343   23.9334 H   0  0  0  0  0  0  0  0  0  0  0  0
   34.8751   22.8400   25.8817 H   0  0  0  0  0  0  0  0  0  0  0  0
   34.0350   25.1947   26.8655 H   0  0  0  0  0  0  0  0  0  0  0  0
  1  2  2  0
  1  6  1  0
  2  3  1  0
  3  4  2  0
  4  5  1  0
  5  6  2  0
  6  7  1  0
  7  8  2  0
  7  9  1  0
 10  9  1  0
 10 11  1  0
 10 19  1  0
 11 12  1  0
 12 13  1  0
 12 15  1  0
 13 14  1  0
 15 16  1  0
 15 17  1  0
 17 18  1  0
 17 19  1  0
 19 20  1  0
  1 21  1  0
  2 22  1  0
  3 23  1  0
  4 24  1  0
  5 25  1  0
  9 26  1  0
 10 27  1  1
 12 28  1  1
 13 29  1  0
 13 30  1  0
 14 31  1  0
 15 32  1  6
 16 33  1  0
 17 34  1  6
 18 35  1  0
 19 36  1  6
 20 37  1  0
M  END
>  <filename_input>  (9) 
3g2n_docked.sdf

>  <pdb_id>  (9) 
3g2n

>  <pose_rank>  (9) 
8

>  <num_atoms_heavy>  (9) 
20

>  <num_torsions>  (9) 
3

>  <pose>  (9) 
[33.82930946425746, 23.02165011601563, 27.770121787406115, -0.8646042867586509, 4.1095808299900085, 4.769116379212465, 1.1699265337496692, 4.653831957211028, -0.22816972163743376]

>  <energy>  (9) 
-2066.1663387488247

>  <inter_energy>  (9) 
-2216.7486776931655

>  <intra_energy>  (9) 
23.983559692613905

>  <rmsd>  (9) 
0.754717

>  <sdf_rank>  (9) 
0

$$$$

     RDKit          3D

 37 38  0  0  0  0  0  0  0  0999 V2000
   36.7984   25.5598   30.8096 C   0  0  0  0  0  0  0  0  0  0  0  0
   37.8458   25.7661   31.7052 C   0  0  0  0  0  0  0  0  0  0  0  0
   38.3881   24.6928   32.4070 C   0  0  0  0  0  0  0  0  0  0  0  0
   37.8787   23.4077   32.2073 C   0  0  0  0  0  0  0  0  0  0  0  0
   36.8265   23.2018   31.3072 C   0  0  0  0  0  0  0  0  0  0  0  0
   36.2867   24.2821   30.6083 C   0  0  0  0  0  0  0  0  0  0  0  0
   35.1392   24.0567   29.6165 C   0  0  0  0  0  0  0  0  0  0  0  0
   34.9713   24.8282   28.6747 O   0  0  0  0  0  0  0  0  0  0  0  0
   34.3660   23.0015   29.8601 N   0  0  0  0  0  0  0  0  0  0  0  0
   33.2235   22.7040   28.9568 C   0  0  2  0  0  0  0  0  0  0  0  0
   33.7231   22.0738   27.7267 O   0  0  0  0  0  0  0  0  0  0  0  0
   32.6718   21.7108   26.8273 C   0  0  2  0  0  0  0  0  0  0  0  0
   33.3453   20.9964   25.6407 C   0  0  0  0  0  0  0  0  0  0  0  0
   32.8820   19.6464   25.5639 O   0  0  0  0  0  0  0  0  0  0  0  0
   31.8912   22.9857   26.4208 C   0  0  1  0  0  0  0  0  0  0  0  0
   30.8148   22.6232   25.5683 O   0  0  0  0  0  0  0  0  0  0  0  0
   31.3391   23.7313   27.6471 C   0  0  2  0  0  0  0  0  0  0  0  0
   30.7492   24.9648   27.2364 O   0  0  0  0  0  0  0  0  0  0  0  0
   32.4584   24.0064   28.6649 C   0  0  1  0  0  0  0  0  0  0  0  0
   31.9291   24.5621   29.8807 O   0  0  0  0  0  0  0  0  0  0  0  0
   36.3738   26.4120   30.2587 H   0  0  0  0  0  0  0  0  0  0  0  0
   38.2453   26.7795   31.8581 H   0  0  0  0  0  0  0  0  0  0  0  0
   39.2138   24.8562   33.1152 H   0  0  0  0  0  0  0  0  0  0  0  0
   38.3048   22.5563   32.7582 H   0  0  0  0  0  0  0  0  0  0  0  0
   36.4256   22.1893   31.1511 H   0  0  0  0  0  0  0  0  0  0  0  0
   34.5579   22.3946   30.6698 H   0  0  0  0  0  0  0  0  0  0  0  0
   32.5266   21.9996   29.4345 H   0  0  0  0  0  0  0  0  0  0  0  0
   31.9313   21.0317   27.2749 H   0  0  0  0  0  0  0  0  0  0  0  0
   33.0949   21.5223   24.7076 H   0  0  0  0  0  0  0  0  0  0  0  0
   34.4357   20.9992   25.7858 H   0  0  0  0  0  0  0  0  0  0  0  0
   32.7588   19.2873   26.4782 H   0  0  0  0  0  0  0  0  0  0  0  0
   32.5871   23.6592   25.8990 H   0  0  0  0  0  0  0  0  0  0  0  0
   30.0337   22.3601   26.1167 H   0  0  0  0  0  0  0  0  0  0  0  0
   30.5766   23.0997   28.1263 H   0  0  0  0  0  0  0  0  0  0  0  0
   30.4970   25.4921   28.0354 H   0  0  0  0  0  0  0  0  0  0  0  0
   33.1503   24.7447   28.2334 H   0  0  0  0  0  0  0  0  0  0  0  0
   32.3520   24.1181   30.6580 H   0  0  0  0  0  0  0  0  0  0  0  0
  1  2  2  0
  1  6  1  0
  2  3  1  0
  3  4  2  0
  4  5  1  0
  5  6  2  0
  6  7  1  0
  7  8  2  0
  7  9  1  0
 10  9  1  0
 10 11  1  0
 10 19  1  0
 11 12  1  0
 12 13  1  0
 12 15  1  0
 13 14  1  0
 15 16  1  0
 15 17  1  0
 17 18  1  0
 17 19  1  0
 19 20  1  0
  1 21  1  0
  2 22  1  0
  3 23  1  0
  4 24  1  0
  5 25  1  0
  9 26  1  0
 10 27  1  1
 12 28  1  1
 13 29  1  0
 13 30  1  0
 14 31  1  0
 15 32  1  6
 16 33  1  0
 17 34  1  1
 18 35  1  0
 19 36  1  6
 20 37  1  0
M  END
>  <filename_input>  (10) 
3g2n_docked.sdf

>  <pdb_id>  (10) 
3g2n

>  <pose_rank>  (10) 
9

>  <num_atoms_heavy>  (10) 
20

>  <num_torsions>  (10) 
3

>  <pose>  (10) 
[33.22346102029008, 22.704032194900403, 28.95677361534261, 6.451497529900183, 1.4791657336363693, 3.902205916428085, 3.16125986238396, 4.355318827739918, 3.2111644291244477]

>  <energy>  (10) 
-742.0348713697863

>  <inter_energy>  (10) 
-794.4519100052743

>  <intra_energy>  (10) 
32.89141242062384

>  <rmsd>  (10) 
2.15983

>  <sdf_rank>  (10) 
0

$$$$

     RDKit          3D

 37 38  0  0  0  0  0  0  0  0999 V2000
   38.1657   24.2357   30.4762 C   0  0  0  0  0  0  0  0  0  0  0  0
   39.1548   24.4792   31.4270 C   0  0  0  0  0  0  0  0  0  0  0  0
   38.8194   25.0320   32.6601 C   0  0  0  0  0  0  0  0  0  0  0  0
   37.4860   25.3393   32.9403 C   0  0  0  0  0  0  0  0  0  0  0  0
   36.4932   25.0941   31.9843 C   0  0  0  0  0  0  0  0  0  0  0  0
   36.8366   24.5413   30.7501 C   0  0  0  0  0  0  0  0  0  0  0  0
   35.7491   24.2652   29.7050 C   0  0  0  0  0  0  0  0  0  0  0  0
   35.9744   24.4476   28.5106 O   0  0  0  0  0  0  0  0  0  0  0  0
   34.5839   23.8381   30.1850 N   0  0  0  0  0  0  0  0  0  0  0  0
   33.4657   23.5490   29.2491 C   0  0  2  0  0  0  0  0  0  0  0  0
   33.9108   22.5784   28.2393 O   0  0  0  0  0  0  0  0  0  0  0  0
   32.8689   22.2115   27.3306 C   0  0  2  0  0  0  0  0  0  0  0  0
   33.4650   21.1396   26.3991 C   0  0  0  0  0  0  0  0  0  0  0  0
   32.5718   20.0273   26.3092 O   0  0  0  0  0  0  0  0  0  0  0  0
   32.3792   23.4778   26.5844 C   0  0  1  0  0  0  0  0  0  0  0  0
   31.3098   23.1263   25.7187 O   0  0  0  0  0  0  0  0  0  0  0  0
   31.9055   24.5672   27.5608 C   0  0  2  0  0  0  0  0  0  0  0  0
   31.5947   25.7593   26.8394 O   0  0  0  0  0  0  0  0  0  0  0  0
   32.9892   24.8648   28.6102 C   0  0  1  0  0  0  0  0  0  0  0  0
   32.5015   25.7660   29.6187 O   0  0  0  0  0  0  0  0  0  0  0  0
   38.4374   23.7995   29.5036 H   0  0  0  0  0  0  0  0  0  0  0  0
   40.2035   24.2340   31.2029 H   0  0  0  0  0  0  0  0  0  0  0  0
   39.6006   25.2257   33.4098 H   0  0  0  0  0  0  0  0  0  0  0  0
   37.2157   25.7747   33.9137 H   0  0  0  0  0  0  0  0  0  0  0  0
   35.4435   25.3369   32.2059 H   0  0  0  0  0  0  0  0  0  0  0  0
   34.4575   23.7085   31.1989 H   0  0  0  0  0  0  0  0  0  0  0  0
   32.6158   23.1050   29.7881 H   0  0  0  0  0  0  0  0  0  0  0  0
   31.9831   21.7927   27.8305 H   0  0  0  0  0  0  0  0  0  0  0  0
   33.6161   21.5689   25.3977 H   0  0  0  0  0  0  0  0  0  0  0  0
   34.4292   20.8001   26.8054 H   0  0  0  0  0  0  0  0  0  0  0  0
   32.3289   19.7247   27.2200 H   0  0  0  0  0  0  0  0  0  0  0  0
   33.2250   23.8823   26.0090 H   0  0  0  0  0  0  0  0  0  0  0  0
   30.5207   22.8670   26.2574 H   0  0  0  0  0  0  0  0  0  0  0  0
   31.0053   24.2048   28.0790 H   0  0  0  0  0  0  0  0  0  0  0  0
   31.4038   26.4913   27.4781 H   0  0  0  0  0  0  0  0  0  0  0  0
   33.8379   25.3527   28.1083 H   0  0  0  0  0  0  0  0  0  0  0  0
   32.7011   25.3971   30.5154 H   0  0  0  0  0  0  0  0  0  0  0  0
  1  2  2  0
  1  6  1  0
  2  3  1  0
  3  4  2  0
  4  5  1  0
  5  6  2  0
  6  7  1  0
  7  8  2  0
  7  9  1  0
 10  9  1  0
 10 11  1  0
 10 19  1  0
 11 12  1  0
 12 13  1  0
 12 15  1  0
 13 14  1  0
 15 16  1  0
 15 17  1  0
 17 18  1  0
 17 19  1  0
 19 20  1  0
  1 21  1  0
  2 22  1  0
  3 23  1  0
  4 24  1  0
  5 25  1  0
  9 26  1  0
 10 27  1  1
 12 28  1  1
 13 29  1  0
 13 30  1  0
 14 31  1  0
 15 32  1  6
 16 33  1  0
 17 34  1  1
 18 35  1  0
 19 36  1  6
 20 37  1  0
M  END
>  <filename_input>  (11) 
3g2n_docked.sdf

>  <pdb_id>  (11) 
3g2n

>  <pose_rank>  (11) 
10

>  <num_atoms_heavy>  (11) 
20

>  <num_torsions>  (11) 
3

>  <pose>  (11) 
[33.46565420434542, 23.548999586064927, 29.249054827141368, 6.3128552469264045, 1.0615736711594852, 3.684264188202298, 2.7726534580210034, 3.2430679211924067, 3.4578747750043353]

>  <energy>  (11) 
-629.1297775997

>  <inter_energy>  (11) 
-686.1218205735511

>  <intra_energy>  (11) 
21.14263453614605

>  <rmsd>  (11) 
2.30891

>  <sdf_rank>  (11) 
0

$$$$

     RDKit          3D

 37 38  0  0  0  0  0  0  0  0999 V2000
   36.4807   25.7539   30.2566 C   0  0  0  0  0  0  0  0  0  0  0  0
   37.6965   26.0547   30.8674 C   0  0  0  0  0  0  0  0  0  0  0  0
   38.4634   25.0415   31.4364 C   0  0  0  0  0  0  0  0  0  0  0  0
   38.0093   23.7215   31.3901 C   0  0  0  0  0  0  0  0  0  0  0  0
   36.7877   23.4206   30.7761 C   0  0  0  0  0  0  0  0  0  0  0  0
   36.0235   24.4411   30.2091 C   0  0  0  0  0  0  0  0  0  0  0  0
   34.6889   24.1118   29.5297 C   0  0  0  0  0  0  0  0  0  0  0  0
   33.6792   24.7596   29.7965 O   0  0  0  0  0  0  0  0  0  0  0  0
   34.7157   23.0978   28.6684 N   0  0  0  0  0  0  0  0  0  0  0  0
   33.4687   22.6996   27.9638 C   0  0  2  0  0  0  0  0  0  0  0  0
   33.7553   21.5796   27.0565 O   0  0  0  0  0  0  0  0  0  0  0  0
   32.5878   21.1066   26.3789 C   0  0  2  0  0  0  0  0  0  0  0  0
   33.0354   19.8945   25.5409 C   0  0  0  0  0  0  0  0  0  0  0  0
   31.9005   19.0911   25.2095 O   0  0  0  0  0  0  0  0  0  0  0  0
   31.9926   22.2593   25.5322 C   0  0  1  0  0  0  0  0  0  0  0  0
   30.8043   21.8087   24.8983 O   0  0  0  0  0  0  0  0  0  0  0  0
   31.6727   23.4926   26.3932 C   0  0  2  0  0  0  0  0  0  0  0  0
   31.2579   24.5715   25.5552 O   0  0  0  0  0  0  0  0  0  0  0  0
   32.9027   23.9170   27.2126 C   0  0  1  0  0  0  0  0  0  0  0  0
   32.5737   24.9692   28.1354 O   0  0  0  0  0  0  0  0  0  0  0  0
   35.8791   26.5591   29.8096 H   0  0  0  0  0  0  0  0  0  0  0  0
   38.0513   27.0954   30.9001 H   0  0  0  0  0  0  0  0  0  0  0  0
   39.4223   25.2795   31.9200 H   0  0  0  0  0  0  0  0  0  0  0  0
   38.6123   22.9173   31.8368 H   0  0  0  0  0  0  0  0  0  0  0  0
   36.4307   22.3807   30.7406 H   0  0  0  0  0  0  0  0  0  0  0  0
   35.5951   22.5919   28.4910 H   0  0  0  0  0  0  0  0  0  0  0  0
   32.7094   22.3609   28.6841 H   0  0  0  0  0  0  0  0  0  0  0  0
   31.7871   20.7878   27.0625 H   0  0  0  0  0  0  0  0  0  0  0  0
   33.5162   20.2469   24.6164 H   0  0  0  0  0  0  0  0  0  0  0  0
   33.7492   19.2933   26.1232 H   0  0  0  0  0  0  0  0  0  0  0  0
   31.4619   18.7806   26.0410 H   0  0  0  0  0  0  0  0  0  0  0  0
   32.7422   22.5537   24.7829 H   0  0  0  0  0  0  0  0  0  0  0  0
   30.1386   21.5563   25.5862 H   0  0  0  0  0  0  0  0  0  0  0  0
   30.8607   23.2327   27.0883 H   0  0  0  0  0  0  0  0  0  0  0  0
   30.9654   25.3322   26.1172 H   0  0  0  0  0  0  0  0  0  0  0  0
   33.6665   24.3045   26.5223 H   0  0  0  0  0  0  0  0  0  0  0  0
   32.6770   24.6390   29.0630 H   0  0  0  0  0  0  0  0  0  0  0  0
  1  2  2  0
  1  6  1  0
  2  3  1  0
  3  4  2  0
  4  5  1  0
  5  6  2  0
  6  7  1  0
  7  8  2  0
  7  9  1  0
 10  9  1  0
 10 11  1  0
 10 19  1  0
 11 12  1  0
 12 13  1  0
 12 15  1  0
 13 14  1  0
 15 16  1  0
 15 17  1  0
 17 18  1  0
 17 19  1  0
 19 20  1  0
  1 21  1  0
  2 22  1  0
  3 23  1  0
  4 24  1  0
  5 25  1  0
  9 26  1  0
 10 27  1  1
 12 28  1  1
 13 29  1  0
 13 30  1  0
 14 31  1  0
 15 32  1  6
 16 33  1  0
 17 34  1  1
 18 35  1  0
 19 36  1  6
 20 37  1  0
M  END
>  <filename_input>  (12) 
3g2n_docked.sdf

>  <pdb_id>  (12) 
3g2n

>  <pose_rank>  (12) 
11

>  <num_atoms_heavy>  (12) 
20

>  <num_torsions>  (12) 
3

>  <pose>  (12) 
[33.468677204979166, 22.699615739912034, 27.963817922492016, 6.076995603754568, 2.360913525382729, 3.256462991713466, -1.3520517530859524, 3.0492473633767094, 3.953254632294209]

>  <energy>  (12) 
-1005.391843275733

>  <inter_energy>  (12) 
-983.1808725219863

>  <intra_energy>  (12) 
108.07157441270667

>  <rmsd>  (12) 
1.46809

>  <sdf_rank>  (12) 
0

$$$$

     RDKit          3D

 37 38  0  0  0  0  0  0  0  0999 V2000
   36.4066   25.4433   31.5266 C   0  0  0  0  0  0  0  0  0  0  0  0
   37.5895   25.9567   32.0550 C   0  0  0  0  0  0  0  0  0  0  0  0
   38.7990   25.7446   31.3988 C   0  0  0  0  0  0  0  0  0  0  0  0
   38.8208   25.0166   30.2070 C   0  0  0  0  0  0  0  0  0  0  0  0
   37.6318   24.5015   29.6772 C   0  0  0  0  0  0  0  0  0  0  0  0
   36.4233   24.7165   30.3408 C   0  0  0  0  0  0  0  0  0  0  0  0
   35.1193   24.1593   29.7575 C   0  0  0  0  0  0  0  0  0  0  0  0
   34.0961   24.1320   30.4377 O   0  0  0  0  0  0  0  0  0  0  0  0
   35.1914   23.7164   28.5049 N   0  0  0  0  0  0  0  0  0  0  0  0
   33.9795   23.1522   27.8545 C   0  0  2  0  0  0  0  0  0  0  0  0
   33.9163   21.7059   28.1077 O   0  0  0  0  0  0  0  0  0  0  0  0
   32.7451   21.1000   27.5535 C   0  0  2  0  0  0  0  0  0  0  0  0
   32.7855   19.6184   27.9716 C   0  0  0  0  0  0  0  0  0  0  0  0
   34.1425   19.1773   28.0557 O   0  0  0  0  0  0  0  0  0  0  0  0
   32.7446   21.3109   26.0187 C   0  0  1  0  0  0  0  0  0  0  0  0
   31.5579   20.7556   25.4707 O   0  0  0  0  0  0  0  0  0  0  0  0
   32.8265   22.8010   25.6481 C   0  0  2  0  0  0  0  0  0  0  0  0
   32.9616   22.9395   24.2336 O   0  0  0  0  0  0  0  0  0  0  0  0
   34.0195   23.4707   26.3500 C   0  0  1  0  0  0  0  0  0  0  0  0
   34.0159   24.8925   26.1365 O   0  0  0  0  0  0  0  0  0  0  0  0
   35.4543   25.6138   32.0503 H   0  0  0  0  0  0  0  0  0  0  0  0
   37.5675   26.5310   32.9929 H   0  0  0  0  0  0  0  0  0  0  0  0
   39.7328   26.1484   31.8170 H   0  0  0  0  0  0  0  0  0  0  0  0
   39.7737   24.8477   29.6840 H   0  0  0  0  0  0  0  0  0  0  0  0
   37.6502   23.9278   28.7388 H   0  0  0  0  0  0  0  0  0  0  0  0
   36.0815   23.7641   27.9889 H   0  0  0  0  0  0  0  0  0  0  0  0
   33.0694   23.6055   28.2743 H   0  0  0  0  0  0  0  0  0  0  0  0
   31.8091   21.5459   27.9210 H   0  0  0  0  0  0  0  0  0  0  0  0
   32.3021   19.5023   28.9528 H   0  0  0  0  0  0  0  0  0  0  0  0
   32.2524   19.0143   27.2227 H   0  0  0  0  0  0  0  0  0  0  0  0
   34.4036   19.0924   29.0069 H   0  0  0  0  0  0  0  0  0  0  0  0
   33.6322   20.8092   25.6058 H   0  0  0  0  0  0  0  0  0  0  0  0
   30.9560   20.4739   26.2044 H   0  0  0  0  0  0  0  0  0  0  0  0
   31.9015   23.2952   25.9800 H   0  0  0  0  0  0  0  0  0  0  0  0
   33.6388   23.6332   24.0331 H   0  0  0  0  0  0  0  0  0  0  0  0
   34.9490   23.0703   25.9190 H   0  0  0  0  0  0  0  0  0  0  0  0
   34.0147   25.3574   27.0105 H   0  0  0  0  0  0  0  0  0  0  0  0
  1  2  2  0
  1  6  1  0
  2  3  1  0
  3  4  2  0
  4  5  1  0
  5  6  2  0
  6  7  1  0
  7  8  2  0
  7  9  1  0
 10  9  1  0
 10 11  1  0
 10 19  1  0
 11 12  1  0
 12 13  1  0
 12 15  1  0
 13 14  1  0
 15 16  1  0
 15 17  1  0
 17 18  1  0
 17 19  1  0
 19 20  1  0
  1 21  1  0
  2 22  1  0
  3 23  1  0
  4 24  1  0
  5 25  1  0
  9 26  1  0
 10 27  1  1
 12 28  1  1
 13 29  1  0
 13 30  1  0
 14 31  1  0
 15 32  1  6
 16 33  1  0
 17 34  1  1
 18 35  1  0
 19 36  1  6
 20 37  1  0
M  END
>  <filename_input>  (13) 
3g2n_docked.sdf

>  <pdb_id>  (13) 
3g2n

>  <pose_rank>  (13) 
12

>  <num_atoms_heavy>  (13) 
20

>  <num_torsions>  (13) 
3

>  <pose>  (13) 
[33.979461958320286, 23.152201278353747, 27.854515285528723, 0.994525287336862, 4.268946246277498, 4.684344841223021, 0.23709415254173588, 3.669923484538545, 0.59851286872385]

>  <energy>  (13) 
-1424.0294632833306

>  <inter_energy>  (13) 
-1461.3309094836018

>  <intra_energy>  (13) 
0.029738086414466795

>  <rmsd>  (13) 
0.710903

>  <sdf_rank>  (13) 
0

$$$$

     RDKit          3D

 37 38  0  0  0  0  0  0  0  0999 V2000
   36.1396   24.9385   31.5450 C   0  0  0  0  0  0  0  0  0  0  0  0
   37.3306   25.3793   32.1186 C   0  0  0  0  0  0  0  0  0  0  0  0
   38.5479   25.1077   31.4998 C   0  0  0  0  0  0  0  0  0  0  0  0
   38.5695   24.3930   30.3000 C   0  0  0  0  0  0  0  0  0  0  0  0
   37.3723   23.9508   29.7247 C   0  0  0  0  0  0  0  0  0  0  0  0
   36.1560   24.2253   30.3509 C   0  0  0  0  0  0  0  0  0  0  0  0
   34.8435   23.7480   29.7179 C   0  0  0  0  0  0  0  0  0  0  0  0
   33.8038   23.7415   30.3732 O   0  0  0  0  0  0  0  0  0  0  0  0
   34.9266   23.3480   28.4515 N   0  0  0  0  0  0  0  0  0  0  0  0
   33.7075   22.8622   27.7533 C   0  0  2  0  0  0  0  0  0  0  0  0
   33.5052   21.4381   28.0549 O   0  0  0  0  0  0  0  0  0  0  0  0
   32.3177   20.9112   27.4564 C   0  0  2  0  0  0  0  0  0  0  0  0
   32.2065   19.4500   27.9298 C   0  0  0  0  0  0  0  0  0  0  0  0
   32.4446   18.5671   26.8313 O   0  0  0  0  0  0  0  0  0  0  0  0
   32.4190   21.0579   25.9175 C   0  0  1  0  0  0  0  0  0  0  0  0
   31.2201   20.5830   25.3224 O   0  0  0  0  0  0  0  0  0  0  0  0
   32.6501   22.5192   25.4982 C   0  0  2  0  0  0  0  0  0  0  0  0
   32.8734   22.5873   24.0897 O   0  0  0  0  0  0  0  0  0  0  0  0
   33.8568   23.1138   26.2430 C   0  0  1  0  0  0  0  0  0  0  0  0
   33.9883   24.5208   25.9780 O   0  0  0  0  0  0  0  0  0  0  0  0
   35.1812   25.1557   32.0392 H   0  0  0  0  0  0  0  0  0  0  0  0
   37.3090   25.9434   33.0627 H   0  0  0  0  0  0  0  0  0  0  0  0
   39.4881   25.4542   31.9537 H   0  0  0  0  0  0  0  0  0  0  0  0
   39.5286   24.1772   29.8065 H   0  0  0  0  0  0  0  0  0  0  0  0
   37.3905   23.3876   28.7800 H   0  0  0  0  0  0  0  0  0  0  0  0
   35.8303   23.3748   27.9580 H   0  0  0  0  0  0  0  0  0  0  0  0
   32.8187   23.4078   28.1031 H   0  0  0  0  0  0  0  0  0  0  0  0
   31.4054   21.4496   27.7528 H   0  0  0  0  0  0  0  0  0  0  0  0
   32.9517   19.2632   28.7170 H   0  0  0  0  0  0  0  0  0  0  0  0
   31.1962   19.2722   28.3271 H   0  0  0  0  0  0  0  0  0  0  0  0
   32.6864   17.6706   27.1748 H   0  0  0  0  0  0  0  0  0  0  0  0
   33.2808   20.4663   25.5751 H   0  0  0  0  0  0  0  0  0  0  0  0
   30.5780   20.3286   26.0317 H   0  0  0  0  0  0  0  0  0  0  0  0
   31.7548   23.1032   25.7579 H   0  0  0  0  0  0  0  0  0  0  0  0
   33.8059   22.8713   23.9168 H   0  0  0  0  0  0  0  0  0  0  0  0
   34.7700   22.6188   25.8812 H   0  0  0  0  0  0  0  0  0  0  0  0
   34.0345   25.0150   26.8345 H   0  0  0  0  0  0  0  0  0  0  0  0
  1  2  2  0
  1  6  1  0
  2  3  1  0
  3  4  2  0
  4  5  1  0
  5  6  2  0
  6  7  1  0
  7  8  2  0
  7  9  1  0
 10  9  1  0
 10 11  1  0
 10 19  1  0
 11 12  1  0
 12 13  1  0
 12 15  1  0
 13 14  1  0
 15 16  1  0
 15 17  1  0
 17 18  1  0
 17 19  1  0
 19 20  1  0
  1 21  1  0
  2 22  1  0
  3 23  1  0
  4 24  1  0
  5 25  1  0
  9 26  1  0
 10 27  1  1
 12 28  1  1
 13 29  1  0
 13 30  1  0
 14 31  1  0
 15 32  1  6
 16 33  1  0
 17 34  1  6
 18 35  1  0
 19 36  1  6
 20 37  1  0
M  END
>  <filename_input>  (14) 
3g2n_docked.sdf

>  <pdb_id>  (14) 
3g2n

>  <pose_rank>  (14) 
13

>  <num_atoms_heavy>  (14) 
20

>  <num_torsions>  (14) 
3

>  <pose>  (14) 
[33.707451379817094, 22.86215378644508, 27.753264537611727, -2.8642101543776097, 5.415739657607076, 1.5573870521626232, 0.3295629696785642, 3.6410853223837156, -0.7673258554872896]

>  <energy>  (14) 
-3193.80849292958

>  <inter_energy>  (14) 
-3509.335951137629

>  <intra_energy>  (14) 
11.221156111334349

>  <rmsd>  (14) 
0.52563

>  <sdf_rank>  (14) 
0

$$$$

     RDKit          3D

 37 38  0  0  0  0  0  0  0  0999 V2000
   35.6700   24.1554   27.1258 C   0  0  0  0  0  0  0  0  0  0  0  0
   34.8673   23.5117   28.0657 C   0  0  0  0  0  0  0  0  0  0  0  0
   33.6919   22.8808   27.6673 C   0  0  0  0  0  0  0  0  0  0  0  0
   33.3220   22.8942   26.3205 C   0  0  0  0  0  0  0  0  0  0  0  0
   34.1293   23.5411   25.3772 C   0  0  0  0  0  0  0  0  0  0  0  0
   35.3053   24.1726   25.7836 C   0  0  0  0  0  0  0  0  0  0  0  0
   36.1942   24.8750   24.7504 C   0  0  0  0  0  0  0  0  0  0  0  0
   36.1693   26.0987   24.6385 O   0  0  0  0  0  0  0  0  0  0  0  0
   36.9567   24.0760   24.0083 N   0  0  0  0  0  0  0  0  0  0  0  0
   37.8488   24.6643   22.9747 C   0  0  2  0  0  0  0  0  0  0  0  0
   38.6439   23.5979   22.3499 O   0  0  0  0  0  0  0  0  0  0  0  0
   39.4925   24.0831   21.3056 C   0  0  2  0  0  0  0  0  0  0  0  0
   40.1877   22.8475   20.7041 C   0  0  0  0  0  0  0  0  0  0  0  0
   40.5423   21.9372   21.7475 O   0  0  0  0  0  0  0  0  0  0  0  0
   40.4781   25.1221   21.8964 C   0  0  1  0  0  0  0  0  0  0  0  0
   41.2883   25.6441   20.8534 O   0  0  0  0  0  0  0  0  0  0  0  0
   39.7391   26.2772   22.5923 C   0  0  2  0  0  0  0  0  0  0  0  0
   40.6817   27.1337   23.2373 O   0  0  0  0  0  0  0  0  0  0  0  0
   38.7382   25.7368   23.6269 C   0  0  1  0  0  0  0  0  0  0  0  0
   37.9322   26.7956   24.1714 O   0  0  0  0  0  0  0  0  0  0  0  0
   36.5971   24.6526   27.4472 H   0  0  0  0  0  0  0  0  0  0  0  0
   35.1632   23.5020   29.1251 H   0  0  0  0  0  0  0  0  0  0  0  0
   33.0575   22.3742   28.4096 H   0  0  0  0  0  0  0  0  0  0  0  0
   32.3951   22.3958   26.0005 H   0  0  0  0  0  0  0  0  0  0  0  0
   33.8369   23.5514   24.3169 H   0  0  0  0  0  0  0  0  0  0  0  0
   36.9290   23.0561   24.1490 H   0  0  0  0  0  0  0  0  0  0  0  0
   37.2570   25.1478   22.1836 H   0  0  0  0  0  0  0  0  0  0  0  0
   38.9449   24.6047   20.5069 H   0  0  0  0  0  0  0  0  0  0  0  0
   39.5036   22.3493   20.0013 H   0  0  0  0  0  0  0  0  0  0  0  0
   41.0974   23.1643   20.1730 H   0  0  0  0  0  0  0  0  0  0  0  0
   40.3768   22.3619   22.6263 H   0  0  0  0  0  0  0  0  0  0  0  0
   41.0982   24.6135   22.6493 H   0  0  0  0  0  0  0  0  0  0  0  0
   42.0528   26.1368   21.2444 H   0  0  0  0  0  0  0  0  0  0  0  0
   39.1846   26.8462   21.8315 H   0  0  0  0  0  0  0  0  0  0  0  0
   40.5875   27.0481   24.2191 H   0  0  0  0  0  0  0  0  0  0  0  0
   39.3018   25.2854   24.4567 H   0  0  0  0  0  0  0  0  0  0  0  0
   37.9613   26.7574   25.1603 H   0  0  0  0  0  0  0  0  0  0  0  0
  1  2  2  0
  1  6  1  0
  2  3  1  0
  3  4  2  0
  4  5  1  0
  5  6  2  0
  6  7  1  0
  7  8  2  0
  7  9  1  0
 10  9  1  0
 10 11  1  0
 10 19  1  0
 11 12  1  0
 12 13  1  0
 12 15  1  0
 13 14  1  0
 15 16  1  0
 15 17  1  0
 17 18  1  0
 17 19  1  0
 19 20  1  0
  1 21  1  0
  2 22  1  0
  3 23  1  0
  4 24  1  0
  5 25  1  0
  9 26  1  0
 10 27  1  6
 12 28  1  6
 13 29  1  0
 13 30  1  0
 14 31  1  0
 15 32  1  1
 16 33  1  0
 17 34  1  6
 18 35  1  0
 19 36  1  1
 20 37  1  0
M  END
>  <filename_input>  (15) 
3g2n_docked.sdf

>  <pdb_id>  (15) 
3g2n

>  <pose_rank>  (15) 
14

>  <num_atoms_heavy>  (15) 
20

>  <num_torsions>  (15) 
3

>  <pose>  (15) 
[37.84880874904363, 24.66427704402768, 22.974749881367305, -2.02861478397406, 3.8305374146361912, -0.7689045195890604, -1.3958899516482006, 2.53393671505716, 0.4706047390544533]

>  <energy>  (15) 
-17.05111346386326

>  <inter_energy>  (15) 
-77.75259560478118

>  <intra_energy>  (15) 
109.65701874053403

>  <rmsd>  (15) 
7.61272

>  <sdf_rank>  (15) 
0

$$$$

     RDKit          3D

 37 38  0  0  0  0  0  0  0  0999 V2000
   40.9289   21.6126   19.4282 C   0  0  0  0  0  0  0  0  0  0  0  0
   40.3034   22.8560   19.3594 C   0  0  0  0  0  0  0  0  0  0  0  0
   39.6664   23.3819   20.4801 C   0  0  0  0  0  0  0  0  0  0  0  0
   39.6591   22.6582   21.6747 C   0  0  0  0  0  0  0  0  0  0  0  0
   40.2880   21.4093   21.7426 C   0  0  0  0  0  0  0  0  0  0  0  0
   40.9233   20.8875   20.6152 C   0  0  0  0  0  0  0  0  0  0  0  0
   41.6189   19.5231   20.6904 C   0  0  0  0  0  0  0  0  0  0  0  0
   41.9878   18.9562   19.6643 O   0  0  0  0  0  0  0  0  0  0  0  0
   41.7731   19.0217   21.9133 N   0  0  0  0  0  0  0  0  0  0  0  0
   42.4317   17.7003   22.0876 C   0  0  2  0  0  0  0  0  0  0  0  0
   41.4147   16.6396   22.0645 O   0  0  0  0  0  0  0  0  0  0  0  0
   41.9808   15.3308   22.1759 C   0  0  2  0  0  0  0  0  0  0  0  0
   40.8080   14.3404   22.0531 C   0  0  0  0  0  0  0  0  0  0  0  0
   40.2494   14.4139   20.7395 O   0  0  0  0  0  0  0  0  0  0  0  0
   42.7448   15.2229   23.5193 C   0  0  1  0  0  0  0  0  0  0  0  0
   43.3516   13.9422   23.6108 O   0  0  0  0  0  0  0  0  0  0  0  0
   43.8267   16.3081   23.6485 C   0  0  2  0  0  0  0  0  0  0  0  0
   44.4083   16.2566   24.9513 O   0  0  0  0  0  0  0  0  0  0  0  0
   43.2287   17.7033   23.4034 C   0  0  1  0  0  0  0  0  0  0  0  0
   44.2556   18.7090   23.3673 O   0  0  0  0  0  0  0  0  0  0  0  0
   41.4299   21.2024   18.5390 H   0  0  0  0  0  0  0  0  0  0  0  0
   40.3130   23.4234   18.4171 H   0  0  0  0  0  0  0  0  0  0  0  0
   39.1712   24.3626   20.4250 H   0  0  0  0  0  0  0  0  0  0  0  0
   39.1585   23.0701   22.5633 H   0  0  0  0  0  0  0  0  0  0  0  0
   40.2813   20.8399   22.6838 H   0  0  0  0  0  0  0  0  0  0  0  0
   41.4382   19.5459   22.7342 H   0  0  0  0  0  0  0  0  0  0  0  0
   43.1349   17.5076   21.2640 H   0  0  0  0  0  0  0  0  0  0  0  0
   42.7169   15.1068   21.3898 H   0  0  0  0  0  0  0  0  0  0  0  0
   41.1713   13.3189   22.2391 H   0  0  0  0  0  0  0  0  0  0  0  0
   40.0350   14.5984   22.7921 H   0  0  0  0  0  0  0  0  0  0  0  0
   39.2700   14.5428   20.8041 H   0  0  0  0  0  0  0  0  0  0  0  0
   42.0210   15.3665   24.3351 H   0  0  0  0  0  0  0  0  0  0  0  0
   43.4669   13.6989   24.5634 H   0  0  0  0  0  0  0  0  0  0  0  0
   44.6021   16.1206   22.8912 H   0  0  0  0  0  0  0  0  0  0  0  0
   43.6942   16.3198   25.6342 H   0  0  0  0  0  0  0  0  0  0  0  0
   42.5526   17.9457   24.2365 H   0  0  0  0  0  0  0  0  0  0  0  0
   44.5080   18.9562   24.2921 H   0  0  0  0  0  0  0  0  0  0  0  0
  1  2  2  0
  1  6  1  0
  2  3  1  0
  3  4  2  0
  4  5  1  0
  5  6  2  0
  6  7  1  0
  7  8  2  0
  7  9  1  0
 10  9  1  0
 10 11  1  0
 10 19  1  0
 11 12  1  0
 12 13  1  0
 12 15  1  0
 13 14  1  0
 15 16  1  0
 15 17  1  0
 17 18  1  0
 17 19  1  0
 19 20  1  0
  1 21  1  0
  2 22  1  0
  3 23  1  0
  4 24  1  0
  5 25  1  0
  9 26  1  0
 10 27  1  6
 12 28  1  6
 13 29  1  0
 13 30  1  0
 14 31  1  0
 15 32  1  1
 16 33  1  0
 17 34  1  6
 18 35  1  0
 19 36  1  1
 20 37  1  0
M  END
>  <filename_input>  (16) 
3g2n_docked.sdf

>  <pdb_id>  (16) 
3g2n

>  <pose_rank>  (16) 
15

>  <num_atoms_heavy>  (16) 
20

>  <num_torsions>  (16) 
3

>  <pose>  (16) 
[42.431652278374855, 17.70033453878025, 22.08758372431858, 1.5490630915935364, 3.346551933478824, -0.003363514845687355, 0.2196604081478264, 3.6881326825085714, 2.311720174762239]

>  <energy>  (16) 
-64.99438700890506

>  <inter_energy>  (16) 
-53.465463364413836

>  <intra_energy>  (16) 
0.007053795141041784

>  <rmsd>  (16) 
11.8584

>  <sdf_rank>  (16) 
0

$$$$

     RDKit          3D

 37 38  0  0  0  0  0  0  0  0999 V2000
   35.9617   23.9887   31.7755 C   0  0  0  0  0  0  0  0  0  0  0  0
   37.1388   24.3608   32.4219 C   0  0  0  0  0  0  0  0  0  0  0  0
   38.2689   24.6948   31.6804 C   0  0  0  0  0  0  0  0  0  0  0  0
   38.2164   24.6571   30.2852 C   0  0  0  0  0  0  0  0  0  0  0  0
   37.0333   24.2833   29.6369 C   0  0  0  0  0  0  0  0  0  0  0  0
   35.9049   23.9484   30.3863 C   0  0  0  0  0  0  0  0  0  0  0  0
   34.6062   23.5460   29.6774 C   0  0  0  0  0  0  0  0  0  0  0  0
   33.5182   23.7448   30.2135 O   0  0  0  0  0  0  0  0  0  0  0  0
   34.7538   22.9766   28.4839 N   0  0  0  0  0  0  0  0  0  0  0  0
   33.5522   22.5464   27.7217 C   0  0  2  0  0  0  0  0  0  0  0  0
   33.3550   21.1003   27.8936 O   0  0  0  0  0  0  0  0  0  0  0  0
   32.1834   20.6207   27.2278 C   0  0  2  0  0  0  0  0  0  0  0  0
   32.0743   19.1230   27.5694 C   0  0  0  0  0  0  0  0  0  0  0  0
   30.7969   18.6269   27.1630 O   0  0  0  0  0  0  0  0  0  0  0  0
   32.3134   20.9021   25.7099 C   0  0  1  0  0  0  0  0  0  0  0  0
   31.1300   20.4739   25.0518 O   0  0  0  0  0  0  0  0  0  0  0  0
   32.5413   22.3958   25.4246 C   0  0  2  0  0  0  0  0  0  0  0  0
   32.7914   22.5882   24.0322 O   0  0  0  0  0  0  0  0  0  0  0  0
   33.7288   22.9301   26.2424 C   0  0  1  0  0  0  0  0  0  0  0  0
   33.8546   24.3557   26.1040 O   0  0  0  0  0  0  0  0  0  0  0  0
   35.0725   23.7253   32.3671 H   0  0  0  0  0  0  0  0  0  0  0  0
   37.1752   24.3908   33.5209 H   0  0  0  0  0  0  0  0  0  0  0  0
   39.1984   24.9868   32.1909 H   0  0  0  0  0  0  0  0  0  0  0  0
   39.1061   24.9217   29.6948 H   0  0  0  0  0  0  0  0  0  0  0  0
   36.9932   24.2535   28.5381 H   0  0  0  0  0  0  0  0  0  0  0  0
   35.6951   22.8346   28.0905 H   0  0  0  0  0  0  0  0  0  0  0  0
   32.6526   23.0541   28.1000 H   0  0  0  0  0  0  0  0  0  0  0  0
   31.2614   21.1256   27.5518 H   0  0  0  0  0  0  0  0  0  0  0  0
   32.8657   18.5695   27.0429 H   0  0  0  0  0  0  0  0  0  0  0  0
   32.1882   18.9883   28.6552 H   0  0  0  0  0  0  0  0  0  0  0  0
   30.2545   18.4163   27.9640 H   0  0  0  0  0  0  0  0  0  0  0  0
   33.1862   20.3478   25.3344 H   0  0  0  0  0  0  0  0  0  0  0  0
   30.4483   20.2273   25.7261 H   0  0  0  0  0  0  0  0  0  0  0  0
   31.6368   22.9495   25.7164 H   0  0  0  0  0  0  0  0  0  0  0  0
   33.5707   23.1877   23.9166 H   0  0  0  0  0  0  0  0  0  0  0  0
   34.6526   22.4741   25.8571 H   0  0  0  0  0  0  0  0  0  0  0  0
   33.8914   24.7724   27.0013 H   0  0  0  0  0  0  0  0  0  0  0  0
  1  2  2  0
  1  6  1  0
  2  3  1  0
  3  4  2  0
  4  5  1  0
  5  6  2  0
  6  7  1  0
  7  8  2  0
  7  9  1  0
 10  9  1  0
 10 11  1  0
 10 19  1  0
 11 12  1  0
 12 13  1  0
 12 15  1  0
 13 14  1  0
 15 16  1  0
 15 17  1  0
 17 18  1  0
 17 19  1  0
 19 20  1  0
  1 21  1  0
  2 22  1  0
  3 23  1  0
  4 24  1  0
  5 25  1  0
  9 26  1  0
 10 27  1  1
 12 28  1  1
 13 29  1  0
 13 30  1  0
 14 31  1  0
 15 32  1  6
 16 33  1  0
 17 34  1  1
 18 35  1  0
 19 36  1  6
 20 37  1  0
M  END
>  <filename_input>  (17) 
3g2n_docked.sdf

>  <pdb_id>  (17) 
3g2n

>  <pose_rank>  (17) 
16

>  <num_atoms_heavy>  (17) 
20

>  <num_torsions>  (17) 
3

>  <pose>  (17) 
[33.55216492602385, 22.546433964310786, 27.721660201392236, 6.076919582539459, 1.085339552566969, 1.5157822681089157, 0.06769982516996502, 4.3887269751255, 4.1053929561582825]

>  <energy>  (17) 
-1857.1444895152638

>  <inter_energy>  (17) 
-1749.415715347519

>  <intra_energy>  (17) 
9.92633835786949

>  <rmsd>  (17) 
0.977369

>  <sdf_rank>  (17) 
0

$$$$

     RDKit          3D

 37 38  0  0  0  0  0  0  0  0999 V2000
   42.2316   27.1064   24.5499 C   0  0  0  0  0  0  0  0  0  0  0  0
   43.1013   28.0398   25.1106 C   0  0  0  0  0  0  0  0  0  0  0  0
   44.1238   28.5924   24.3441 C   0  0  0  0  0  0  0  0  0  0  0  0
   44.2725   28.2083   23.0094 C   0  0  0  0  0  0  0  0  0  0  0  0
   43.3981   27.2706   22.4472 C   0  0  0  0  0  0  0  0  0  0  0  0
   42.3764   26.7198   23.2216 C   0  0  0  0  0  0  0  0  0  0  0  0
   41.4134   25.6983   22.6049 C   0  0  0  0  0  0  0  0  0  0  0  0
   40.2454   26.0047   22.3760 O   0  0  0  0  0  0  0  0  0  0  0  0
   41.9286   24.4965   22.3584 N   0  0  0  0  0  0  0  0  0  0  0  0
   41.0705   23.4369   21.7660 C   0  0  2  0  0  0  0  0  0  0  0  0
   41.2408   22.1888   22.5229 O   0  0  0  0  0  0  0  0  0  0  0  0
   40.4046   21.1333   22.0407 C   0  0  2  0  0  0  0  0  0  0  0  0
   40.6368   19.9345   22.9791 C   0  0  0  0  0  0  0  0  0  0  0  0
   41.7645   19.1804   22.5290 O   0  0  0  0  0  0  0  0  0  0  0  0
   40.7615   20.8408   20.5618 C   0  0  1  0  0  0  0  0  0  0  0  0
   39.8986   19.8287   20.0638 O   0  0  0  0  0  0  0  0  0  0  0  0
   40.6305   22.0970   19.6846 C   0  0  2  0  0  0  0  0  0  0  0  0
   41.0987   21.8152   18.3657 O   0  0  0  0  0  0  0  0  0  0  0  0
   41.4357   23.2629   20.2818 C   0  0  1  0  0  0  0  0  0  0  0  0
   41.1970   24.4824   19.5586 O   0  0  0  0  0  0  0  0  0  0  0  0
   41.4262   26.6731   25.1610 H   0  0  0  0  0  0  0  0  0  0  0  0
   42.9796   28.3408   26.1616 H   0  0  0  0  0  0  0  0  0  0  0  0
   44.8113   29.3278   24.7874 H   0  0  0  0  0  0  0  0  0  0  0  0
   45.0778   28.6432   22.3992 H   0  0  0  0  0  0  0  0  0  0  0  0
   43.5164   26.9685   21.3962 H   0  0  0  0  0  0  0  0  0  0  0  0
   42.9161   24.3015   22.5767 H   0  0  0  0  0  0  0  0  0  0  0  0
   40.0096   23.7216   21.8244 H   0  0  0  0  0  0  0  0  0  0  0  0
   39.3344   21.3875   22.0497 H   0  0  0  0  0  0  0  0  0  0  0  0
   40.8254   20.3001   23.9993 H   0  0  0  0  0  0  0  0  0  0  0  0
   39.7443   19.2915   22.9756 H   0  0  0  0  0  0  0  0  0  0  0  0
   42.2692   18.8428   23.3109 H   0  0  0  0  0  0  0  0  0  0  0  0
   41.8093   20.5081   20.5238 H   0  0  0  0  0  0  0  0  0  0  0  0
   39.4857   19.3444   20.8222 H   0  0  0  0  0  0  0  0  0  0  0  0
   39.5701   22.3868   19.6451 H   0  0  0  0  0  0  0  0  0  0  0  0
   41.9458   21.3054   18.4182 H   0  0  0  0  0  0  0  0  0  0  0  0
   42.5070   23.0282   20.1968 H   0  0  0  0  0  0  0  0  0  0  0  0
   41.0521   25.2231   20.1993 H   0  0  0  0  0  0  0  0  0  0  0  0
  1  2  2  0
  1  6  1  0
  2  3  1  0
  3  4  2  0
  4  5  1  0
  5  6  2  0
  6  7  1  0
  7  8  2  0
  7  9  1  0
 10  9  1  0
 10 11  1  0
 10 19  1  0
 11 12  1  0
 12 13  1  0
 12 15  1  0
 13 14  1  0
 15 16  1  0
 15 17  1  0
 17 18  1  0
 17 19  1  0
 19 20  1  0
  1 21  1  0
  2 22  1  0
  3 23  1  0
  4 24  1  0
  5 25  1  0
  9 26  1  0
 10 27  1  6
 12 28  1  6
 13 29  1  0
 13 30  1  0
 14 31  1  0
 15 32  1  1
 16 33  1  0
 17 34  1  6
 18 35  1  0
 19 36  1  1
 20 37  1  0
M  END
>  <filename_input>  (18) 
3g2n_docked.sdf

>  <pdb_id>  (18) 
3g2n

>  <pose_rank>  (18) 
17

>  <num_atoms_heavy>  (18) 
20

>  <num_torsions>  (18) 
3

>  <pose>  (18) 
[41.07048999444705, 23.436944120743888, 21.765972996596265, 4.104005264170206, 1.3630065807496627, -3.8322221849453797, -0.5033973826856827, -1.1446695019610165, -0.342875712448937]

>  <energy>  (18) 
-247.1881504584569

>  <inter_energy>  (18) 
-208.929750867694

>  <intra_energy>  (18) 
4.785970738069685

>  <rmsd>  (18) 
9.77616

>  <sdf_rank>  (18) 
0

$$$$

     RDKit          3D

 37 38  0  0  0  0  0  0  0  0999 V2000
   38.8997   14.3905   20.2675 C   0  0  0  0  0  0  0  0  0  0  0  0
   37.9278   13.5048   19.8061 C   0  0  0  0  0  0  0  0  0  0  0  0
   36.7691   13.9886   19.2046 C   0  0  0  0  0  0  0  0  0  0  0  0
   36.5865   15.3662   19.0637 C   0  0  0  0  0  0  0  0  0  0  0  0
   37.5637   16.2549   19.5275 C   0  0  0  0  0  0  0  0  0  0  0  0
   38.7218   15.7632   20.1307 C   0  0  0  0  0  0  0  0  0  0  0  0
   39.7963   16.7353   20.6323 C   0  0  0  0  0  0  0  0  0  0  0  0
   40.6609   16.3544   21.4184 O   0  0  0  0  0  0  0  0  0  0  0  0
   39.7089   17.9797   20.1692 N   0  0  0  0  0  0  0  0  0  0  0  0
   40.7028   18.9964   20.6033 C   0  0  2  0  0  0  0  0  0  0  0  0
   40.0638   20.3192   20.6451 O   0  0  0  0  0  0  0  0  0  0  0  0
   40.9487   21.3444   21.1052 C   0  0  2  0  0  0  0  0  0  0  0  0
   40.1153   22.6379   21.1704 C   0  0  0  0  0  0  0  0  0  0  0  0
   40.9418   23.7239   21.5954 O   0  0  0  0  0  0  0  0  0  0  0  0
   42.1602   21.4358   20.1440 C   0  0  1  0  0  0  0  0  0  0  0  0
   43.0665   22.4173   20.6257 O   0  0  0  0  0  0  0  0  0  0  0  0
   42.8904   20.0884   20.0177 C   0  0  2  0  0  0  0  0  0  0  0  0
   43.9097   20.1837   19.0226 O   0  0  0  0  0  0  0  0  0  0  0  0
   41.9047   18.9693   19.6434 C   0  0  1  0  0  0  0  0  0  0  0  0
   42.5446   17.6821   19.6748 O   0  0  0  0  0  0  0  0  0  0  0  0
   39.8126   14.0018   20.7425 H   0  0  0  0  0  0  0  0  0  0  0  0
   38.0765   12.4206   19.9174 H   0  0  0  0  0  0  0  0  0  0  0  0
   36.0013   13.2894   18.8420 H   0  0  0  0  0  0  0  0  0  0  0  0
   35.6735   15.7533   18.5877 H   0  0  0  0  0  0  0  0  0  0  0  0
   37.4186   17.3396   19.4166 H   0  0  0  0  0  0  0  0  0  0  0  0
   38.9570   18.2370   19.5139 H   0  0  0  0  0  0  0  0  0  0  0  0
   41.0701   18.7701   21.6152 H   0  0  0  0  0  0  0  0  0  0  0  0
   41.3673   21.1427   22.1022 H   0  0  0  0  0  0  0  0  0  0  0  0
   39.7052   22.8589   20.1739 H   0  0  0  0  0  0  0  0  0  0  0  0
   39.2923   22.5046   21.8880 H   0  0  0  0  0  0  0  0  0  0  0  0
   40.9645   23.7538   22.5847 H   0  0  0  0  0  0  0  0  0  0  0  0
   41.7844   21.7128   19.1480 H   0  0  0  0  0  0  0  0  0  0  0  0
   43.0623   22.4128   21.6157 H   0  0  0  0  0  0  0  0  0  0  0  0
   43.3454   19.8449   20.9891 H   0  0  0  0  0  0  0  0  0  0  0  0
   44.7931   20.2663   19.4619 H   0  0  0  0  0  0  0  0  0  0  0  0
   41.5523   19.1423   18.6158 H   0  0  0  0  0  0  0  0  0  0  0  0
   42.6824   17.4050   20.6152 H   0  0  0  0  0  0  0  0  0  0  0  0
  1  2  2  0
  1  6  1  0
  2  3  1  0
  3  4  2  0
  4  5  1  0
  5  6  2  0
  6  7  1  0
  7  8  2  0
  7  9  1  0
 10  9  1  0
 10 11  1  0
 10 19  1  0
 11 12  1  0
 12 13  1  0
 12 15  1  0
 13 14  1  0
 15 16  1  0
 15 17  1  0
 17 18  1  0
 17 19  1  0
 19 20  1  0
  1 21  1  0
  2 22  1  0
  3 23  1  0
  4 24  1  0
  5 25  1  0
  9 26  1  0
 10 27  1  1
 12 28  1  1
 13 29  1  0
 13 30  1  0
 14 31  1  0
 15 32  1  6
 16 33  1  0
 17 34  1  1
 18 35  1  0
 19 36  1  6
 20 37  1  0
M  END
>  <filename_input>  (19) 
3g2n_docked.sdf

>  <pdb_id>  (19) 
3g2n

>  <pose_rank>  (19) 
18

>  <num_atoms_heavy>  (19) 
20

>  <num_torsions>  (19) 
3

>  <pose>  (19) 
[40.70281369954377, 18.996410361553586, 20.603295864398326, -1.6988302403565059, 0.005712347193802536, 3.151242703463247, -0.7784446958345572, -2.672619916428525, -1.957569334352714]

>  <energy>  (19) 
-52.131949685387184

>  <inter_energy>  (19) 
-114.67668817220482

>  <intra_energy>  (19) 
33.5024329696611

>  <rmsd>  (19) 
12.7768

>  <sdf_rank>  (19) 
0

$$$$

     RDKit          3D

 37 38  0  0  0  0  0  0  0  0999 V2000
   39.5123   19.6060   21.9596 C   0  0  0  0  0  0  0  0  0  0  0  0
   39.2805   18.2751   21.6181 C   0  0  0  0  0  0  0  0  0  0  0  0
   39.6757   17.7930   20.3731 C   0  0  0  0  0  0  0  0  0  0  0  0
   40.3078   18.6494   19.4688 C   0  0  0  0  0  0  0  0  0  0  0  0
   40.5403   19.9862   19.8131 C   0  0  0  0  0  0  0  0  0  0  0  0
   40.1403   20.4631   21.0619 C   0  0  0  0  0  0  0  0  0  0  0  0
   40.4012   21.9252   21.4432 C   0  0  0  0  0  0  0  0  0  0  0  0
   39.8812   22.8366   20.8032 O   0  0  0  0  0  0  0  0  0  0  0  0
   41.2148   22.1142   22.4790 N   0  0  0  0  0  0  0  0  0  0  0  0
   41.5328   23.4977   22.9203 C   0  0  2  0  0  0  0  0  0  0  0  0
   40.7020   24.4529   22.1737 O   0  0  0  0  0  0  0  0  0  0  0  0
   40.9166   25.8067   22.5822 C   0  0  2  0  0  0  0  0  0  0  0  0
   39.9247   26.6645   21.7748 C   0  0  0  0  0  0  0  0  0  0  0  0
   39.4992   25.9468   20.6142 O   0  0  0  0  0  0  0  0  0  0  0  0
   42.4002   26.1798   22.3375 C   0  0  1  0  0  0  0  0  0  0  0  0
   42.6296   27.5064   22.7894 O   0  0  0  0  0  0  0  0  0  0  0  0
   43.3566   25.2220   23.0674 C   0  0  2  0  0  0  0  0  0  0  0  0
   44.7053   25.5179   22.7046 O   0  0  0  0  0  0  0  0  0  0  0  0
   43.0347   23.7602   22.7155 C   0  0  1  0  0  0  0  0  0  0  0  0
   43.8170   22.8511   23.5085 O   0  0  0  0  0  0  0  0  0  0  0  0
   39.1970   19.9809   22.9445 H   0  0  0  0  0  0  0  0  0  0  0  0
   38.7839   17.6035   22.3339 H   0  0  0  0  0  0  0  0  0  0  0  0
   39.4910   16.7427   20.1031 H   0  0  0  0  0  0  0  0  0  0  0  0
   40.6234   18.2728   18.4846 H   0  0  0  0  0  0  0  0  0  0  0  0
   41.0378   20.6600   19.1000 H   0  0  0  0  0  0  0  0  0  0  0  0
   41.6219   21.3067   22.9721 H   0  0  0  0  0  0  0  0  0  0  0  0
   41.3080   23.6232   23.9898 H   0  0  0  0  0  0  0  0  0  0  0  0
   40.7355   25.9716   23.6546 H   0  0  0  0  0  0  0  0  0  0  0  0
   39.0507   26.8988   22.4003 H   0  0  0  0  0  0  0  0  0  0  0  0
   40.4186   27.5973   21.4649 H   0  0  0  0  0  0  0  0  0  0  0  0
   39.0145   25.1292   20.8910 H   0  0  0  0  0  0  0  0  0  0  0  0
   42.5979   26.0997   21.2584 H   0  0  0  0  0  0  0  0  0  0  0  0
   42.6323   27.5221   23.7793 H   0  0  0  0  0  0  0  0  0  0  0  0
   43.2282   25.3584   24.1513 H   0  0  0  0  0  0  0  0  0  0  0  0
   45.2487   25.6371   23.5234 H   0  0  0  0  0  0  0  0  0  0  0  0
   43.2922   23.5894   21.6598 H   0  0  0  0  0  0  0  0  0  0  0  0
   43.6607   23.0327   24.4691 H   0  0  0  0  0  0  0  0  0  0  0  0
  1  2  2  0
  1  6  1  0
  2  3  1  0
  3  4  2  0
  4  5  1  0
  5  6  2  0
  6  7  1  0
  7  8  2  0
  7  9  1  0
 10  9  1  0
 10 11  1  0
 10 19  1  0
 11 12  1  0
 12 13  1  0
 12 15  1  0
 13 14  1  0
 15 16  1  0
 15 17  1  0
 17 18  1  0
 17 19  1  0
 19 20  1  0
  1 21  1  0
  2 22  1  0
  3 23  1  0
  4 24  1  0
  5 25  1  0
  9 26  1  0
 10 27  1  1
 12 28  1  1
 13 29  1  0
 13 30  1  0
 14 31  1  0
 15 32  1  6
 16 33  1  0
 17 34  1  1
 18 35  1  0
 19 36  1  6
 20 37  1  0
M  END
>  <filename_input>  (20) 
3g2n_docked.sdf

>  <pdb_id>  (20) 
3g2n

>  <pose_rank>  (20) 
19

>  <num_atoms_heavy>  (20) 
20

>  <num_torsions>  (20) 
3

>  <pose>  (20) 
[41.532762662292924, 23.49768738978102, 22.920311409737593, -2.7917393789779683, 0.48891710331979793, 2.8091885111395567, 1.931099379232847, 1.8476201983438172, 0.8046218536068463]

>  <energy>  (20) 
-53.353926882552216

>  <inter_energy>  (20) 
-79.16037317229062

>  <intra_energy>  (20) 
40.17643729622874

>  <rmsd>  (20) 
11.3452

>  <sdf_rank>  (20) 
0

$$$$

     RDKit          3D

 37 38  0  0  0  0  0  0  0  0999 V2000
   37.1580   23.4870   30.4910 C   0  0  0  0  0  0  0  0  0  0  0  0
   38.3350   23.8670   31.1330 C   0  0  0  0  0  0  0  0  0  0  0  0
   38.4750   25.1600   31.6300 C   0  0  0  0  0  0  0  0  0  0  0  0
   37.4290   26.0740   31.4840 C   0  0  0  0  0  0  0  0  0  0  0  0
   36.2470   25.6910   30.8390 C   0  0  0  0  0  0  0  0  0  0  0  0
   36.1140   24.3940   30.3420 C   0  0  0  0  0  0  0  0  0  0  0  0
   34.8170   23.9710   29.6420 C   0  0  0  0  0  0  0  0  0  0  0  0
   33.7260   24.2890   30.1100 O   0  0  0  0  0  0  0  0  0  0  0  0
   34.9690   23.2500   28.5340 N   0  0  0  0  0  0  0  0  0  0  0  0
   33.7690   22.7880   27.7880 C   0  0  2  0  0  0  0  0  0  0  0  0
   33.5440   21.3610   28.0580 O   0  0  0  0  0  0  0  0  0  0  0  0
   32.3720   20.8560   27.4120 C   0  0  2  0  0  0  0  0  0  0  0  0
   32.2320   19.3880   27.8560 C   0  0  0  0  0  0  0  0  0  0  0  0
   33.3160   18.6190   27.3300 O   0  0  0  0  0  0  0  0  0  0  0  0
   32.5250   21.0280   25.8800 C   0  0  1  0  0  0  0  0  0  0  0  0
   31.3420   20.5750   25.2380 O   0  0  0  0  0  0  0  0  0  0  0  0
   32.7830   22.4940   25.4940 C   0  0  2  0  0  0  0  0  0  0  0  0
   33.0530   22.5840   24.0950 O   0  0  0  0  0  0  0  0  0  0  0  0
   33.9700   23.0640   26.2880 C   0  0  1  0  0  0  0  0  0  0  0  0
   34.1230   24.4740   26.0520 O   0  0  0  0  0  0  0  0  0  0  0  0
   37.0540   22.4642   30.0999 H   0  0  0  0  0  0  0  0  0  0  0  0
   39.1556   23.1435   31.2474 H   0  0  0  0  0  0  0  0  0  0  0  0
   39.4049   25.4603   32.1352 H   0  0  0  0  0  0  0  0  0  0  0  0
   37.5341   27.0962   31.8764 H   0  0  0  0  0  0  0  0  0  0  0  0
   35.4240   26.4118   30.7241 H   0  0  0  0  0  0  0  0  0  0  0  0
   35.9125   23.0134   28.1952 H   0  0  0  0  0  0  0  0  0  0  0  0
   32.8743   23.3362   28.1181 H   0  0  0  0  0  0  0  0  0  0  0  0
   31.4554   21.3980   27.6879 H   0  0  0  0  0  0  0  0  0  0  0  0
   32.2461   19.3356   28.9547 H   0  0  0  0  0  0  0  0  0  0  0  0
   31.2816   18.9828   27.4784 H   0  0  0  0  0  0  0  0  0  0  0  0
   33.8464   18.2427   28.0764 H   0  0  0  0  0  0  0  0  0  0  0  0
   33.3921   20.4340   25.5556 H   0  0  0  0  0  0  0  0  0  0  0  0
   30.6731   20.3188   25.9214 H   0  0  0  0  0  0  0  0  0  0  0  0
   31.8851   23.0821   25.7346 H   0  0  0  0  0  0  0  0  0  0  0  0
   33.9831   22.8940   23.9577 H   0  0  0  0  0  0  0  0  0  0  0  0
   34.8901   22.5664   25.9476 H   0  0  0  0  0  0  0  0  0  0  0  0
   34.1746   24.9499   26.9186 H   0  0  0  0  0  0  0  0  0  0  0  0
  1  2  2  0
  1  6  1  0
  2  3  1  0
  3  4  2  0
  4  5  1  0
  5  6  2  0
  6  7  1  0
  7  8  2  0
  7  9  1  0
 10  9  1  0
 10 11  1  0
 10 19  1  0
 11 12  1  0
 12 13  1  0
 12 15  1  0
 13 14  1  0
 15 16  1  0
 15 17  1  0
 17 18  1  0
 17 19  1  0
 19 20  1  0
  1 21  1  0
  2 22  1  0
  3 23  1  0
  4 24  1  0
  5 25  1  0
  9 26  1  0
 10 27  1  1
 12 28  1  1
 13 29  1  0
 13 30  1  0
 14 31  1  0
 15 32  1  6
 16 33  1  0
 17 34  1  6
 18 35  1  0
 19 36  1  6
 20 37  1  0
M  END
>  <filename_input>  (21) 
3g2n_docked.sdf

>  <pdb_id>  (21) 
3g2n

>  <pose_rank>  (21) 
20

>  <num_atoms_heavy>  (21) 
20

>  <num_torsions>  (21) 
3

>  <pose>  (21) 
[33.769, 22.788, 27.788, 1e-06, 1e-06, 1e-06, 0.0, 0.0, 0.0]

>  <energy>  (21) 
-8544.870673501475

>  <inter_energy>  (21) 
-12597.382177695717

>  <intra_energy>  (21) 
0.0

>  <rmsd>  (21) 
0.0

>  <sdf_rank>  (21) 
0

$$$$
